<?xml version="1.0" ?>
<routes xmlns:xsi="http://www.w3.org/2001/XMLSchema-instance" xsi:noNamespaceSchemaLocation="http://sumo.dlr.de/xsd/routes_file.xsd">
    <vType id="car" length="5.00" minGap="2.50" maxSpeed="33.33" guiShape="passenger" color="red"/>
    <vType id="bicycle" length="2.00" minGap="1.00" maxSpeed="15.00" guiShape="bicycle" color="blue"/>
    <vType id="motorcycle" length="2.50" minGap="1.50" maxSpeed="25.00" guiShape="motorcycle" color="yellow"/>
    <vType id="truck" length="7.00" minGap="2.50" maxSpeed="25.00" guiShape="truck" color="green"/>
    <vType id="bus" length="12.00" minGap="3.00" maxSpeed="22.00" guiShape="bus" color="orange"/>
    <vehicle id="veh_0" type="car" depart="14">
        <route edges="4588647 -4588647"/>
    </vehicle>
    <vehicle id="veh_1" type="car" depart="28">
        <route edges="1112806233 4588647 -4588647 -917450542"/>
    </vehicle>
    <vehicle id="veh_2" type="car" depart="36">
        <route edges="4588647 -4588647 -917450542"/>
    </vehicle>
    <vehicle id="veh_3" type="car" depart="45">
        <route edges="-4588647 -917450542 1174874706"/>
    </vehicle>
    <vehicle id="veh_4" type="car" depart="54">
        <route edges="4588647 -4588647 -917450542"/>
    </vehicle>
    <vehicle id="veh_5" type="car" depart="64">
        <route edges="-917450542 1174874706"/>
    </vehicle>
    <vehicle id="veh_6" type="car" depart="72">
        <route edges="1112806233 4588647 -4588647"/>
    </vehicle>
    <vehicle id="veh_7" type="car" depart="81">
        <route edges="-917450542 1174874706"/>
    </vehicle>
    <vehicle id="veh_8" type="car" depart="88">
        <route edges="-917450542 917450542 4588647"/>
    </vehicle>
    <vehicle id="veh_9" type="car" depart="97">
        <route edges="-917450542 1174874706"/>
    </vehicle>
    <vehicle id="veh_10" type="car" depart="108">
        <route edges="1112806233 4588647 -4588647"/>
    </vehicle>
    <vehicle id="veh_11" type="car" depart="114">
        <route edges="-4588647 -917450542"/>
    </vehicle>
    <vehicle id="veh_12" type="car" depart="125">
        <route edges="-917450542 917450542 4588647"/>
    </vehicle>
    <vehicle id="veh_13" type="car" depart="131">
        <route edges="-917450542 917450542 4588647 -4588647"/>
    </vehicle>
    <vehicle id="veh_14" type="car" depart="141">
        <route edges="-4588647 -917450542"/>
    </vehicle>
    <vehicle id="veh_15" type="car" depart="148">
        <route edges="4588647 -4588647 -917450542"/>
    </vehicle>
    <vehicle id="veh_16" type="car" depart="157">
        <route edges="4588647 -4588647"/>
    </vehicle>
    <vehicle id="veh_17" type="car" depart="165">
        <route edges="1112806233 4588647 -4588647 -917450542 1174874706"/>
    </vehicle>
    <vehicle id="veh_18" type="car" depart="172">
        <route edges="-4588647 4588647"/>
    </vehicle>
    <vehicle id="veh_19" type="car" depart="179">
        <route edges="1112806233 4588647 -4588647"/>
    </vehicle>
    <vehicle id="veh_20" type="car" depart="186">
        <route edges="4588647 -4588647 -917450542 1174874706"/>
    </vehicle>
    <vehicle id="veh_21" type="car" depart="191">
        <route edges="-4588647 -917450542 1174874706"/>
    </vehicle>
    <vehicle id="veh_22" type="car" depart="193">
        <route edges="-4588647 -917450542 1174874706"/>
    </vehicle>
    <vehicle id="veh_23" type="car" depart="199">
        <route edges="1112806233 4588647 -4588647 -917450542 1174874706"/>
    </vehicle>
    <vehicle id="veh_24" type="car" depart="211">
        <route edges="-4588647 4588647"/>
    </vehicle>
    <vehicle id="veh_25" type="car" depart="216">
        <route edges="-4588647 -917450542 1174874706"/>
    </vehicle>
    <vehicle id="veh_26" type="car" depart="221">
        <route edges="-917450542 917450542 4588647"/>
    </vehicle>
    <vehicle id="veh_27" type="car" depart="227">
        <route edges="1112806233 4588647 -4588647 -917450542 1174874706"/>
    </vehicle>
    <vehicle id="veh_28" type="car" depart="234">
        <route edges="1112806233 4588647 -4588647 -917450542"/>
    </vehicle>
    <vehicle id="veh_29" type="car" depart="240">
        <route edges="1112806233 4588647 -4588647"/>
    </vehicle>
    <vehicle id="veh_30" type="car" depart="251">
        <route edges="1112806233 4588647 -4588647 -917450542"/>
    </vehicle>
    <vehicle id="veh_31" type="car" depart="261">
        <route edges="-917450542 1174874706"/>
    </vehicle>
    <vehicle id="veh_32" type="car" depart="270">
        <route edges="1112806233 4588647 -4588647"/>
    </vehicle>
    <vehicle id="veh_33" type="car" depart="276">
        <route edges="4588647 -4588647"/>
    </vehicle>
    <vehicle id="veh_34" type="car" depart="282">
        <route edges="1112806233 4588647 -4588647"/>
    </vehicle>
    <vehicle id="veh_35" type="car" depart="294">
        <route edges="1112806233 4588647 -4588647 -917450542"/>
    </vehicle>
    <vehicle id="veh_36" type="car" depart="303">
        <route edges="1112806233 4588647"/>
    </vehicle>
    <vehicle id="veh_37" type="car" depart="309">
        <route edges="-4588647 -917450542"/>
    </vehicle>
    <vehicle id="veh_38" type="car" depart="317">
        <route edges="4588647 -4588647"/>
    </vehicle>
    <vehicle id="veh_39" type="car" depart="324">
        <route edges="4588647 -4588647 -917450542 1174874706"/>
    </vehicle>
    <vehicle id="veh_40" type="car" depart="331">
        <route edges="1112806233 4588647 -4588647 -917450542"/>
    </vehicle>
    <vehicle id="veh_41" type="car" depart="335">
        <route edges="1112806233 4588647 -4588647 -917450542 1174874706"/>
    </vehicle>
    <vehicle id="veh_42" type="car" depart="337">
        <route edges="-4588647 4588647"/>
    </vehicle>
    <vehicle id="veh_43" type="car" depart="343">
        <route edges="4588647 -4588647 -917450542"/>
    </vehicle>
    <vehicle id="veh_44" type="car" depart="349">
        <route edges="-4588647 -917450542 1174874706"/>
    </vehicle>
    <vehicle id="veh_45" type="car" depart="362">
        <route edges="-917450542 917450542 4588647 -4588647"/>
    </vehicle>
    <vehicle id="veh_46" type="car" depart="368">
        <route edges="4588647 -4588647 -917450542"/>
    </vehicle>
    <vehicle id="veh_47" type="car" depart="374">
        <route edges="1112806233 4588647"/>
    </vehicle>
    <vehicle id="veh_48" type="car" depart="377">
        <route edges="1112806233 4588647 -4588647 -917450542 1174874706"/>
    </vehicle>
    <vehicle id="veh_49" type="car" depart="387">
        <route edges="4588647 -4588647"/>
    </vehicle>
    <vehicle id="veh_50" type="car" depart="395">
        <route edges="1112806233 4588647 -4588647 -917450542"/>
    </vehicle>
    <vehicle id="veh_51" type="car" depart="406">
        <route edges="-917450542 1174874706"/>
    </vehicle>
    <vehicle id="veh_52" type="car" depart="412">
        <route edges="1112806233 4588647"/>
    </vehicle>
    <vehicle id="veh_53" type="car" depart="421">
        <route edges="4588647 -4588647"/>
    </vehicle>
    <vehicle id="veh_54" type="car" depart="427">
        <route edges="4588647 -4588647 -917450542"/>
    </vehicle>
    <vehicle id="veh_55" type="car" depart="437">
        <route edges="-4588647 -917450542"/>
    </vehicle>
    <vehicle id="veh_56" type="car" depart="445">
        <route edges="1112806233 4588647"/>
    </vehicle>
    <vehicle id="veh_57" type="car" depart="453">
        <route edges="-4588647 -917450542"/>
    </vehicle>
    <vehicle id="veh_58" type="car" depart="459">
        <route edges="4588647 -4588647 -917450542 1174874706"/>
    </vehicle>
    <vehicle id="veh_59" type="car" depart="462">
        <route edges="-4588647 -917450542 1174874706"/>
    </vehicle>
    <vehicle id="veh_60" type="car" depart="468">
        <route edges="1112806233 4588647"/>
    </vehicle>
    <vehicle id="veh_61" type="car" depart="472">
        <route edges="1112806233 4588647 -4588647"/>
    </vehicle>
    <vehicle id="veh_62" type="car" depart="480">
        <route edges="1112806233 4588647"/>
    </vehicle>
    <vehicle id="veh_63" type="car" depart="488">
        <route edges="1112806233 4588647 -4588647 -917450542 1174874706"/>
    </vehicle>
    <vehicle id="veh_64" type="car" depart="494">
        <route edges="4588647 -4588647"/>
    </vehicle>
    <vehicle id="veh_65" type="car" depart="497">
        <route edges="1112806233 4588647 -4588647"/>
    </vehicle>
    <vehicle id="veh_66" type="car" depart="503">
        <route edges="1112806233 4588647 -4588647"/>
    </vehicle>
    <vehicle id="veh_67" type="car" depart="515">
        <route edges="-917450542 917450542 4588647 -4588647"/>
    </vehicle>
    <vehicle id="veh_68" type="car" depart="521">
        <route edges="1112806233 4588647 -4588647 -917450542 1174874706"/>
    </vehicle>
    <vehicle id="veh_69" type="car" depart="528">
        <route edges="1112806233 4588647 -4588647"/>
    </vehicle>
    <vehicle id="veh_70" type="car" depart="535">
        <route edges="4588647 -4588647 -917450542 1174874706"/>
    </vehicle>
    <vehicle id="veh_71" type="car" depart="549">
        <route edges="4588647 -4588647"/>
    </vehicle>
    <vehicle id="veh_72" type="car" depart="557">
        <route edges="4588647 -4588647 -917450542"/>
    </vehicle>
    <vehicle id="veh_73" type="car" depart="562">
        <route edges="-917450542 917450542 4588647 -4588647"/>
    </vehicle>
    <vehicle id="veh_74" type="car" depart="570">
        <route edges="-917450542 917450542 4588647"/>
    </vehicle>
    <vehicle id="veh_75" type="car" depart="579">
        <route edges="4588647 -4588647 -917450542"/>
    </vehicle>
    <vehicle id="veh_76" type="car" depart="589">
        <route edges="1112806233 4588647 -4588647"/>
    </vehicle>
    <vehicle id="veh_77" type="car" depart="597">
        <route edges="1112806233 4588647 -4588647 -917450542 1174874706"/>
    </vehicle>
    <vehicle id="veh_78" type="car" depart="605">
        <route edges="-4588647 -917450542 1174874706"/>
    </vehicle>
    <vehicle id="veh_79" type="car" depart="608">
        <route edges="-4588647 -917450542 1174874706"/>
    </vehicle>
    <vehicle id="veh_80" type="car" depart="612">
        <route edges="1112806233 4588647 -4588647"/>
    </vehicle>
    <vehicle id="veh_81" type="car" depart="618">
        <route edges="4588647 -4588647 -917450542"/>
    </vehicle>
    <vehicle id="veh_82" type="car" depart="621">
        <route edges="1112806233 4588647 -4588647 -917450542"/>
    </vehicle>
    <vehicle id="veh_83" type="car" depart="629">
        <route edges="1112806233 4588647 -4588647"/>
    </vehicle>
    <vehicle id="veh_84" type="car" depart="634">
        <route edges="-917450542 1174874706"/>
    </vehicle>
    <vehicle id="veh_85" type="car" depart="640">
        <route edges="1112806233 4588647 -4588647"/>
    </vehicle>
    <vehicle id="veh_86" type="car" depart="651">
        <route edges="1112806233 4588647"/>
    </vehicle>
    <vehicle id="veh_87" type="car" depart="665">
        <route edges="-4588647 -917450542"/>
    </vehicle>
    <vehicle id="veh_88" type="car" depart="669">
        <route edges="1112806233 4588647 -4588647 -917450542"/>
    </vehicle>
    <vehicle id="veh_89" type="car" depart="676">
        <route edges="-917450542 1174874706"/>
    </vehicle>
    <vehicle id="veh_90" type="car" depart="678">
        <route edges="1112806233 4588647 -4588647"/>
    </vehicle>
    <vehicle id="veh_91" type="car" depart="683">
        <route edges="-4588647 -917450542"/>
    </vehicle>
    <vehicle id="veh_92" type="car" depart="695">
        <route edges="-917450542 1174874706"/>
    </vehicle>
    <vehicle id="veh_93" type="car" depart="702">
        <route edges="1112806233 4588647"/>
    </vehicle>
    <vehicle id="veh_94" type="car" depart="706">
        <route edges="-917450542 917450542 4588647 -4588647"/>
    </vehicle>
    <vehicle id="veh_95" type="car" depart="711">
        <route edges="1112806233 4588647 -4588647 -917450542 1174874706"/>
    </vehicle>
    <vehicle id="veh_96" type="car" depart="714">
        <route edges="1112806233 4588647 -4588647"/>
    </vehicle>
    <vehicle id="veh_97" type="car" depart="720">
        <route edges="-917450542 917450542 4588647"/>
    </vehicle>
    <vehicle id="veh_98" type="car" depart="728">
        <route edges="-917450542 917450542 4588647"/>
    </vehicle>
    <vehicle id="veh_99" type="car" depart="734">
        <route edges="4588647 -4588647 -917450542 1174874706"/>
    </vehicle>
    <vehicle id="veh_100" type="car" depart="739">
        <route edges="-4588647 -917450542"/>
    </vehicle>
    <vehicle id="veh_101" type="car" depart="747">
        <route edges="4588647 -4588647"/>
    </vehicle>
    <vehicle id="veh_102" type="car" depart="753">
        <route edges="4588647 -4588647"/>
    </vehicle>
    <vehicle id="veh_103" type="car" depart="758">
        <route edges="-917450542 1174874706"/>
    </vehicle>
    <vehicle id="veh_104" type="car" depart="767">
        <route edges="-4588647 -917450542"/>
    </vehicle>
    <vehicle id="veh_105" type="car" depart="772">
        <route edges="-4588647 -917450542 1174874706"/>
    </vehicle>
    <vehicle id="veh_106" type="car" depart="781">
        <route edges="1112806233 4588647 -4588647 -917450542 1174874706"/>
    </vehicle>
    <vehicle id="veh_107" type="car" depart="787">
        <route edges="-4588647 -917450542"/>
    </vehicle>
    <vehicle id="veh_108" type="car" depart="792">
        <route edges="1112806233 4588647 -4588647 -917450542 1174874706"/>
    </vehicle>
    <vehicle id="veh_109" type="car" depart="802">
        <route edges="-4588647 -917450542 1174874706"/>
    </vehicle>
    <vehicle id="veh_110" type="car" depart="812">
        <route edges="1112806233 4588647 -4588647 -917450542 1174874706"/>
    </vehicle>
    <vehicle id="veh_111" type="car" depart="821">
        <route edges="-4588647 -917450542 1174874706"/>
    </vehicle>
    <vehicle id="veh_112" type="car" depart="831">
        <route edges="-4588647 -917450542 1174874706"/>
    </vehicle>
    <vehicle id="veh_113" type="car" depart="839">
        <route edges="-4588647 4588647"/>
    </vehicle>
    <vehicle id="veh_114" type="car" depart="846">
        <route edges="-4588647 -917450542 1174874706"/>
    </vehicle>
    <vehicle id="veh_115" type="car" depart="854">
        <route edges="-917450542 1174874706"/>
    </vehicle>
    <vehicle id="veh_116" type="car" depart="863">
        <route edges="-917450542 917450542 4588647"/>
    </vehicle>
    <vehicle id="veh_117" type="car" depart="871">
        <route edges="-4588647 -917450542"/>
    </vehicle>
    <vehicle id="veh_118" type="car" depart="880">
        <route edges="1112806233 4588647 -4588647 -917450542 1174874706"/>
    </vehicle>
    <vehicle id="veh_119" type="car" depart="886">
        <route edges="-917450542 917450542 4588647"/>
    </vehicle>
    <vehicle id="veh_120" type="bicycle" depart="99">
        <route edges="4588647 -4588647 -917450542 1174874706"/>
    </vehicle>
    <vehicle id="veh_121" type="bicycle" depart="196">
        <route edges="1112806233 4588647 -4588647 -917450542 1174874706"/>
    </vehicle>
    <vehicle id="veh_122" type="bicycle" depart="289">
        <route edges="1112806233 4588647 -4588647"/>
    </vehicle>
    <vehicle id="veh_123" type="bicycle" depart="367">
        <route edges="1112806233 4588647 -4588647"/>
    </vehicle>
    <vehicle id="veh_124" type="bicycle" depart="458">
        <route edges="-4588647 4588647"/>
    </vehicle>
    <vehicle id="veh_125" type="bicycle" depart="548">
        <route edges="1112806233 4588647 -4588647 -917450542"/>
    </vehicle>
    <vehicle id="veh_126" type="bicycle" depart="648">
        <route edges="1112806233 4588647"/>
    </vehicle>
    <vehicle id="veh_127" type="bicycle" depart="749">
        <route edges="1112806233 4588647"/>
    </vehicle>
    <vehicle id="veh_128" type="bicycle" depart="833">
        <route edges="-917450542 917450542 4588647"/>
    </vehicle>
    <vehicle id="veh_129" type="motorcycle" depart="4">
        <route edges="-917450542 1174874706"/>
    </vehicle>
    <vehicle id="veh_130" type="motorcycle" depart="4">
        <route edges="-4588647 -917450542"/>
    </vehicle>
    <vehicle id="veh_131" type="motorcycle" depart="6">
        <route edges="1112806233 4588647 -4588647"/>
    </vehicle>
    <vehicle id="veh_132" type="motorcycle" depart="9">
        <route edges="-4588647 -917450542"/>
    </vehicle>
    <vehicle id="veh_133" type="motorcycle" depart="12">
        <route edges="-917450542 917450542 4588647 -4588647"/>
    </vehicle>
    <vehicle id="veh_134" type="motorcycle" depart="16">
        <route edges="4588647 -4588647 -917450542"/>
    </vehicle>
    <vehicle id="veh_135" type="motorcycle" depart="17">
        <route edges="1112806233 4588647 -4588647"/>
    </vehicle>
    <vehicle id="veh_136" type="motorcycle" depart="18">
        <route edges="1112806233 4588647 -4588647 -917450542 1174874706"/>
    </vehicle>
    <vehicle id="veh_137" type="motorcycle" depart="20">
        <route edges="1112806233 4588647"/>
    </vehicle>
    <vehicle id="veh_138" type="motorcycle" depart="24">
        <route edges="1112806233 4588647 -4588647 -917450542"/>
    </vehicle>
    <vehicle id="veh_139" type="motorcycle" depart="29">
        <route edges="1112806233 4588647 -4588647 -917450542"/>
    </vehicle>
    <vehicle id="veh_140" type="motorcycle" depart="31">
        <route edges="-4588647 4588647"/>
    </vehicle>
    <vehicle id="veh_141" type="motorcycle" depart="34">
        <route edges="-4588647 -917450542"/>
    </vehicle>
    <vehicle id="veh_142" type="motorcycle" depart="39">
        <route edges="-4588647 -917450542"/>
    </vehicle>
    <vehicle id="veh_143" type="motorcycle" depart="42">
        <route edges="-4588647 4588647"/>
    </vehicle>
    <vehicle id="veh_144" type="motorcycle" depart="46">
        <route edges="-917450542 917450542 4588647 -4588647"/>
    </vehicle>
    <vehicle id="veh_145" type="motorcycle" depart="49">
        <route edges="-917450542 917450542 4588647 -4588647"/>
    </vehicle>
    <vehicle id="veh_146" type="motorcycle" depart="51">
        <route edges="-917450542 1174874706"/>
    </vehicle>
    <vehicle id="veh_147" type="motorcycle" depart="54">
        <route edges="-917450542 1174874706"/>
    </vehicle>
    <vehicle id="veh_148" type="motorcycle" depart="57">
        <route edges="4588647 -4588647 -917450542 1174874706"/>
    </vehicle>
    <vehicle id="veh_149" type="motorcycle" depart="59">
        <route edges="1112806233 4588647 -4588647"/>
    </vehicle>
    <vehicle id="veh_150" type="motorcycle" depart="63">
        <route edges="-917450542 917450542 4588647 -4588647"/>
    </vehicle>
    <vehicle id="veh_151" type="motorcycle" depart="65">
        <route edges="-4588647 -917450542"/>
    </vehicle>
    <vehicle id="veh_152" type="motorcycle" depart="74">
        <route edges="-917450542 1174874706"/>
    </vehicle>
    <vehicle id="veh_153" type="motorcycle" depart="76">
        <route edges="1112806233 4588647 -4588647 -917450542"/>
    </vehicle>
    <vehicle id="veh_154" type="motorcycle" depart="78">
        <route edges="4588647 -4588647 -917450542"/>
    </vehicle>
    <vehicle id="veh_155" type="motorcycle" depart="80">
        <route edges="-4588647 -917450542"/>
    </vehicle>
    <vehicle id="veh_156" type="motorcycle" depart="81">
        <route edges="-917450542 917450542 4588647 -4588647"/>
    </vehicle>
    <vehicle id="veh_157" type="motorcycle" depart="85">
        <route edges="-4588647 4588647"/>
    </vehicle>
    <vehicle id="veh_158" type="motorcycle" depart="87">
        <route edges="4588647 -4588647"/>
    </vehicle>
    <vehicle id="veh_159" type="motorcycle" depart="92">
        <route edges="-4588647 -917450542 1174874706"/>
    </vehicle>
    <vehicle id="veh_160" type="motorcycle" depart="96">
        <route edges="-4588647 4588647"/>
    </vehicle>
    <vehicle id="veh_161" type="motorcycle" depart="96">
        <route edges="-4588647 4588647"/>
    </vehicle>
    <vehicle id="veh_162" type="motorcycle" depart="100">
        <route edges="4588647 -4588647 -917450542 1174874706"/>
    </vehicle>
    <vehicle id="veh_163" type="motorcycle" depart="104">
        <route edges="-917450542 1174874706"/>
    </vehicle>
    <vehicle id="veh_164" type="motorcycle" depart="108">
        <route edges="1112806233 4588647"/>
    </vehicle>
    <vehicle id="veh_165" type="motorcycle" depart="109">
        <route edges="1112806233 4588647 -4588647 -917450542 1174874706"/>
    </vehicle>
    <vehicle id="veh_166" type="motorcycle" depart="111">
        <route edges="4588647 -4588647 -917450542 1174874706"/>
    </vehicle>
    <vehicle id="veh_167" type="motorcycle" depart="113">
        <route edges="1112806233 4588647 -4588647"/>
    </vehicle>
    <vehicle id="veh_168" type="motorcycle" depart="121">
        <route edges="1112806233 4588647 -4588647 -917450542"/>
    </vehicle>
    <vehicle id="veh_169" type="motorcycle" depart="125">
        <route edges="1112806233 4588647 -4588647 -917450542 1174874706"/>
    </vehicle>
    <vehicle id="veh_170" type="motorcycle" depart="130">
        <route edges="-917450542 1174874706"/>
    </vehicle>
    <vehicle id="veh_171" type="motorcycle" depart="135">
        <route edges="1112806233 4588647 -4588647 -917450542"/>
    </vehicle>
    <vehicle id="veh_172" type="motorcycle" depart="143">
        <route edges="-4588647 -917450542 1174874706"/>
    </vehicle>
    <vehicle id="veh_173" type="motorcycle" depart="143">
        <route edges="4588647 -4588647"/>
    </vehicle>
    <vehicle id="veh_174" type="motorcycle" depart="145">
        <route edges="-4588647 -917450542"/>
    </vehicle>
    <vehicle id="veh_175" type="motorcycle" depart="151">
        <route edges="4588647 -4588647"/>
    </vehicle>
    <vehicle id="veh_176" type="motorcycle" depart="153">
        <route edges="1112806233 4588647"/>
    </vehicle>
    <vehicle id="veh_177" type="motorcycle" depart="159">
        <route edges="1112806233 4588647"/>
    </vehicle>
    <vehicle id="veh_178" type="motorcycle" depart="162">
        <route edges="1112806233 4588647 -4588647 -917450542"/>
    </vehicle>
    <vehicle id="veh_179" type="motorcycle" depart="164">
        <route edges="4588647 -4588647 -917450542 1174874706"/>
    </vehicle>
    <vehicle id="veh_180" type="motorcycle" depart="168">
        <route edges="4588647 -4588647"/>
    </vehicle>
    <vehicle id="veh_181" type="motorcycle" depart="169">
        <route edges="-917450542 917450542 4588647 -4588647"/>
    </vehicle>
    <vehicle id="veh_182" type="motorcycle" depart="170">
        <route edges="1112806233 4588647 -4588647 -917450542"/>
    </vehicle>
    <vehicle id="veh_183" type="motorcycle" depart="173">
        <route edges="1112806233 4588647"/>
    </vehicle>
    <vehicle id="veh_184" type="motorcycle" depart="175">
        <route edges="-917450542 1174874706"/>
    </vehicle>
    <vehicle id="veh_185" type="motorcycle" depart="178">
        <route edges="-4588647 -917450542"/>
    </vehicle>
    <vehicle id="veh_186" type="motorcycle" depart="179">
        <route edges="-917450542 1174874706"/>
    </vehicle>
    <vehicle id="veh_187" type="motorcycle" depart="182">
        <route edges="1112806233 4588647 -4588647"/>
    </vehicle>
    <vehicle id="veh_188" type="motorcycle" depart="188">
        <route edges="-917450542 917450542 4588647 -4588647"/>
    </vehicle>
    <vehicle id="veh_189" type="motorcycle" depart="191">
        <route edges="4588647 -4588647 -917450542"/>
    </vehicle>
    <vehicle id="veh_190" type="motorcycle" depart="192">
        <route edges="4588647 -4588647 -917450542 1174874706"/>
    </vehicle>
    <vehicle id="veh_191" type="motorcycle" depart="194">
        <route edges="-4588647 -917450542 1174874706"/>
    </vehicle>
    <vehicle id="veh_192" type="motorcycle" depart="198">
        <route edges="4588647 -4588647 -917450542 1174874706"/>
    </vehicle>
    <vehicle id="veh_193" type="motorcycle" depart="199">
        <route edges="-4588647 -917450542 1174874706"/>
    </vehicle>
    <vehicle id="veh_194" type="motorcycle" depart="202">
        <route edges="-917450542 917450542 4588647 -4588647"/>
    </vehicle>
    <vehicle id="veh_195" type="motorcycle" depart="206">
        <route edges="-917450542 917450542 4588647 -4588647"/>
    </vehicle>
    <vehicle id="veh_196" type="motorcycle" depart="209">
        <route edges="-917450542 1174874706"/>
    </vehicle>
    <vehicle id="veh_197" type="motorcycle" depart="212">
        <route edges="1112806233 4588647 -4588647"/>
    </vehicle>
    <vehicle id="veh_198" type="motorcycle" depart="217">
        <route edges="4588647 -4588647 -917450542 1174874706"/>
    </vehicle>
    <vehicle id="veh_199" type="motorcycle" depart="223">
        <route edges="-917450542 917450542 4588647"/>
    </vehicle>
    <vehicle id="veh_200" type="motorcycle" depart="225">
        <route edges="-917450542 917450542 4588647"/>
    </vehicle>
    <vehicle id="veh_201" type="motorcycle" depart="228">
        <route edges="-4588647 -917450542 1174874706"/>
    </vehicle>
    <vehicle id="veh_202" type="motorcycle" depart="231">
        <route edges="-4588647 -917450542"/>
    </vehicle>
    <vehicle id="veh_203" type="motorcycle" depart="234">
        <route edges="4588647 -4588647 -917450542 1174874706"/>
    </vehicle>
    <vehicle id="veh_204" type="motorcycle" depart="238">
        <route edges="4588647 -4588647 -917450542"/>
    </vehicle>
    <vehicle id="veh_205" type="motorcycle" depart="239">
        <route edges="1112806233 4588647 -4588647"/>
    </vehicle>
    <vehicle id="veh_206" type="motorcycle" depart="244">
        <route edges="-4588647 -917450542"/>
    </vehicle>
    <vehicle id="veh_207" type="motorcycle" depart="251">
        <route edges="-917450542 1174874706"/>
    </vehicle>
    <vehicle id="veh_208" type="motorcycle" depart="253">
        <route edges="1112806233 4588647 -4588647 -917450542"/>
    </vehicle>
    <vehicle id="veh_209" type="motorcycle" depart="256">
        <route edges="1112806233 4588647 -4588647 -917450542 1174874706"/>
    </vehicle>
    <vehicle id="veh_210" type="motorcycle" depart="261">
        <route edges="4588647 -4588647"/>
    </vehicle>
    <vehicle id="veh_211" type="motorcycle" depart="264">
        <route edges="-917450542 1174874706"/>
    </vehicle>
    <vehicle id="veh_212" type="motorcycle" depart="269">
        <route edges="4588647 -4588647"/>
    </vehicle>
    <vehicle id="veh_213" type="motorcycle" depart="277">
        <route edges="-4588647 4588647"/>
    </vehicle>
    <vehicle id="veh_214" type="motorcycle" depart="281">
        <route edges="-4588647 -917450542"/>
    </vehicle>
    <vehicle id="veh_215" type="motorcycle" depart="285">
        <route edges="-917450542 1174874706"/>
    </vehicle>
    <vehicle id="veh_216" type="motorcycle" depart="290">
        <route edges="1112806233 4588647"/>
    </vehicle>
    <vehicle id="veh_217" type="motorcycle" depart="291">
        <route edges="-4588647 4588647"/>
    </vehicle>
    <vehicle id="veh_218" type="motorcycle" depart="293">
        <route edges="4588647 -4588647"/>
    </vehicle>
    <vehicle id="veh_219" type="motorcycle" depart="294">
        <route edges="4588647 -4588647 -917450542 1174874706"/>
    </vehicle>
    <vehicle id="veh_220" type="motorcycle" depart="296">
        <route edges="1112806233 4588647 -4588647 -917450542"/>
    </vehicle>
    <vehicle id="veh_221" type="motorcycle" depart="298">
        <route edges="-917450542 917450542 4588647 -4588647"/>
    </vehicle>
    <vehicle id="veh_222" type="motorcycle" depart="299">
        <route edges="1112806233 4588647 -4588647 -917450542 1174874706"/>
    </vehicle>
    <vehicle id="veh_223" type="motorcycle" depart="300">
        <route edges="4588647 -4588647 -917450542 1174874706"/>
    </vehicle>
    <vehicle id="veh_224" type="motorcycle" depart="305">
        <route edges="-917450542 1174874706"/>
    </vehicle>
    <vehicle id="veh_225" type="motorcycle" depart="308">
        <route edges="-4588647 -917450542 1174874706"/>
    </vehicle>
    <vehicle id="veh_226" type="motorcycle" depart="309">
        <route edges="4588647 -4588647 -917450542"/>
    </vehicle>
    <vehicle id="veh_227" type="motorcycle" depart="309">
        <route edges="4588647 -4588647 -917450542"/>
    </vehicle>
    <vehicle id="veh_228" type="motorcycle" depart="312">
        <route edges="1112806233 4588647 -4588647"/>
    </vehicle>
    <vehicle id="veh_229" type="motorcycle" depart="317">
        <route edges="-4588647 -917450542 1174874706"/>
    </vehicle>
    <vehicle id="veh_230" type="motorcycle" depart="320">
        <route edges="-4588647 -917450542 1174874706"/>
    </vehicle>
    <vehicle id="veh_231" type="motorcycle" depart="322">
        <route edges="-4588647 -917450542 1174874706"/>
    </vehicle>
    <vehicle id="veh_232" type="motorcycle" depart="325">
        <route edges="1112806233 4588647 -4588647 -917450542"/>
    </vehicle>
    <vehicle id="veh_233" type="motorcycle" depart="327">
        <route edges="4588647 -4588647 -917450542"/>
    </vehicle>
    <vehicle id="veh_234" type="motorcycle" depart="332">
        <route edges="4588647 -4588647 -917450542"/>
    </vehicle>
    <vehicle id="veh_235" type="motorcycle" depart="335">
        <route edges="4588647 -4588647"/>
    </vehicle>
    <vehicle id="veh_236" type="motorcycle" depart="337">
        <route edges="-4588647 4588647"/>
    </vehicle>
    <vehicle id="veh_237" type="motorcycle" depart="340">
        <route edges="-4588647 -917450542 1174874706"/>
    </vehicle>
    <vehicle id="veh_238" type="motorcycle" depart="343">
        <route edges="1112806233 4588647"/>
    </vehicle>
    <vehicle id="veh_239" type="motorcycle" depart="347">
        <route edges="-4588647 4588647"/>
    </vehicle>
    <vehicle id="veh_240" type="motorcycle" depart="351">
        <route edges="1112806233 4588647 -4588647 -917450542"/>
    </vehicle>
    <vehicle id="veh_241" type="motorcycle" depart="352">
        <route edges="-917450542 1174874706"/>
    </vehicle>
    <vehicle id="veh_242" type="motorcycle" depart="361">
        <route edges="1112806233 4588647 -4588647"/>
    </vehicle>
    <vehicle id="veh_243" type="motorcycle" depart="366">
        <route edges="-917450542 917450542 4588647"/>
    </vehicle>
    <vehicle id="veh_244" type="motorcycle" depart="373">
        <route edges="-917450542 1174874706"/>
    </vehicle>
    <vehicle id="veh_245" type="motorcycle" depart="376">
        <route edges="-4588647 -917450542 1174874706"/>
    </vehicle>
    <vehicle id="veh_246" type="motorcycle" depart="379">
        <route edges="1112806233 4588647 -4588647 -917450542 1174874706"/>
    </vehicle>
    <vehicle id="veh_247" type="motorcycle" depart="383">
        <route edges="-4588647 -917450542"/>
    </vehicle>
    <vehicle id="veh_248" type="motorcycle" depart="388">
        <route edges="-4588647 -917450542 1174874706"/>
    </vehicle>
    <vehicle id="veh_249" type="motorcycle" depart="391">
        <route edges="-917450542 1174874706"/>
    </vehicle>
    <vehicle id="veh_250" type="motorcycle" depart="393">
        <route edges="4588647 -4588647 -917450542 1174874706"/>
    </vehicle>
    <vehicle id="veh_251" type="motorcycle" depart="399">
        <route edges="4588647 -4588647"/>
    </vehicle>
    <vehicle id="veh_252" type="motorcycle" depart="405">
        <route edges="-4588647 -917450542 1174874706"/>
    </vehicle>
    <vehicle id="veh_253" type="motorcycle" depart="408">
        <route edges="4588647 -4588647 -917450542"/>
    </vehicle>
    <vehicle id="veh_254" type="motorcycle" depart="410">
        <route edges="1112806233 4588647 -4588647 -917450542 1174874706"/>
    </vehicle>
    <vehicle id="veh_255" type="motorcycle" depart="413">
        <route edges="1112806233 4588647"/>
    </vehicle>
    <vehicle id="veh_256" type="motorcycle" depart="418">
        <route edges="-917450542 1174874706"/>
    </vehicle>
    <vehicle id="veh_257" type="motorcycle" depart="420">
        <route edges="-4588647 -917450542"/>
    </vehicle>
    <vehicle id="veh_258" type="motorcycle" depart="422">
        <route edges="-4588647 -917450542 1174874706"/>
    </vehicle>
    <vehicle id="veh_259" type="motorcycle" depart="425">
        <route edges="1112806233 4588647 -4588647 -917450542"/>
    </vehicle>
    <vehicle id="veh_260" type="motorcycle" depart="428">
        <route edges="4588647 -4588647 -917450542"/>
    </vehicle>
    <vehicle id="veh_261" type="motorcycle" depart="429">
        <route edges="-4588647 -917450542 1174874706"/>
    </vehicle>
    <vehicle id="veh_262" type="motorcycle" depart="432">
        <route edges="1112806233 4588647 -4588647"/>
    </vehicle>
    <vehicle id="veh_263" type="motorcycle" depart="436">
        <route edges="-917450542 917450542 4588647 -4588647"/>
    </vehicle>
    <vehicle id="veh_264" type="motorcycle" depart="438">
        <route edges="1112806233 4588647 -4588647 -917450542"/>
    </vehicle>
    <vehicle id="veh_265" type="motorcycle" depart="443">
        <route edges="-917450542 917450542 4588647"/>
    </vehicle>
    <vehicle id="veh_266" type="motorcycle" depart="446">
        <route edges="4588647 -4588647"/>
    </vehicle>
    <vehicle id="veh_267" type="motorcycle" depart="448">
        <route edges="-4588647 -917450542"/>
    </vehicle>
    <vehicle id="veh_268" type="motorcycle" depart="453">
        <route edges="4588647 -4588647"/>
    </vehicle>
    <vehicle id="veh_269" type="motorcycle" depart="455">
        <route edges="1112806233 4588647"/>
    </vehicle>
    <vehicle id="veh_270" type="motorcycle" depart="458">
        <route edges="1112806233 4588647 -4588647 -917450542 1174874706"/>
    </vehicle>
    <vehicle id="veh_271" type="motorcycle" depart="460">
        <route edges="-917450542 1174874706"/>
    </vehicle>
    <vehicle id="veh_272" type="motorcycle" depart="461">
        <route edges="1112806233 4588647 -4588647 -917450542 1174874706"/>
    </vehicle>
    <vehicle id="veh_273" type="motorcycle" depart="465">
        <route edges="-4588647 -917450542 1174874706"/>
    </vehicle>
    <vehicle id="veh_274" type="motorcycle" depart="469">
        <route edges="4588647 -4588647 -917450542 1174874706"/>
    </vehicle>
    <vehicle id="veh_275" type="motorcycle" depart="470">
        <route edges="4588647 -4588647"/>
    </vehicle>
    <vehicle id="veh_276" type="motorcycle" depart="472">
        <route edges="1112806233 4588647 -4588647"/>
    </vehicle>
    <vehicle id="veh_277" type="motorcycle" depart="473">
        <route edges="-917450542 917450542 4588647"/>
    </vehicle>
    <vehicle id="veh_278" type="motorcycle" depart="475">
        <route edges="-917450542 917450542 4588647 -4588647"/>
    </vehicle>
    <vehicle id="veh_279" type="motorcycle" depart="478">
        <route edges="-4588647 4588647"/>
    </vehicle>
    <vehicle id="veh_280" type="motorcycle" depart="481">
        <route edges="4588647 -4588647 -917450542 1174874706"/>
    </vehicle>
    <vehicle id="veh_281" type="motorcycle" depart="486">
        <route edges="-4588647 -917450542"/>
    </vehicle>
    <vehicle id="veh_282" type="motorcycle" depart="487">
        <route edges="4588647 -4588647 -917450542 1174874706"/>
    </vehicle>
    <vehicle id="veh_283" type="motorcycle" depart="489">
        <route edges="-917450542 1174874706"/>
    </vehicle>
    <vehicle id="veh_284" type="motorcycle" depart="491">
        <route edges="1112806233 4588647 -4588647"/>
    </vehicle>
    <vehicle id="veh_285" type="motorcycle" depart="491">
        <route edges="-4588647 -917450542 1174874706"/>
    </vehicle>
    <vehicle id="veh_286" type="motorcycle" depart="493">
        <route edges="-4588647 -917450542 1174874706"/>
    </vehicle>
    <vehicle id="veh_287" type="motorcycle" depart="496">
        <route edges="1112806233 4588647 -4588647 -917450542"/>
    </vehicle>
    <vehicle id="veh_288" type="motorcycle" depart="498">
        <route edges="-4588647 4588647"/>
    </vehicle>
    <vehicle id="veh_289" type="motorcycle" depart="503">
        <route edges="4588647 -4588647"/>
    </vehicle>
    <vehicle id="veh_290" type="motorcycle" depart="506">
        <route edges="4588647 -4588647 -917450542"/>
    </vehicle>
    <vehicle id="veh_291" type="motorcycle" depart="510">
        <route edges="1112806233 4588647 -4588647 -917450542"/>
    </vehicle>
    <vehicle id="veh_292" type="motorcycle" depart="512">
        <route edges="-4588647 -917450542 1174874706"/>
    </vehicle>
    <vehicle id="veh_293" type="motorcycle" depart="514">
        <route edges="1112806233 4588647"/>
    </vehicle>
    <vehicle id="veh_294" type="motorcycle" depart="516">
        <route edges="1112806233 4588647 -4588647 -917450542 1174874706"/>
    </vehicle>
    <vehicle id="veh_295" type="motorcycle" depart="523">
        <route edges="-917450542 1174874706"/>
    </vehicle>
    <vehicle id="veh_296" type="motorcycle" depart="524">
        <route edges="1112806233 4588647 -4588647 -917450542"/>
    </vehicle>
    <vehicle id="veh_297" type="motorcycle" depart="527">
        <route edges="4588647 -4588647"/>
    </vehicle>
    <vehicle id="veh_298" type="motorcycle" depart="530">
        <route edges="1112806233 4588647 -4588647 -917450542"/>
    </vehicle>
    <vehicle id="veh_299" type="motorcycle" depart="534">
        <route edges="-4588647 -917450542"/>
    </vehicle>
    <vehicle id="veh_300" type="motorcycle" depart="537">
        <route edges="-4588647 -917450542"/>
    </vehicle>
    <vehicle id="veh_301" type="motorcycle" depart="543">
        <route edges="1112806233 4588647 -4588647 -917450542 1174874706"/>
    </vehicle>
    <vehicle id="veh_302" type="motorcycle" depart="545">
        <route edges="-4588647 -917450542"/>
    </vehicle>
    <vehicle id="veh_303" type="motorcycle" depart="546">
        <route edges="4588647 -4588647"/>
    </vehicle>
    <vehicle id="veh_304" type="motorcycle" depart="550">
        <route edges="-4588647 -917450542 1174874706"/>
    </vehicle>
    <vehicle id="veh_305" type="motorcycle" depart="553">
        <route edges="4588647 -4588647"/>
    </vehicle>
    <vehicle id="veh_306" type="motorcycle" depart="557">
        <route edges="4588647 -4588647 -917450542"/>
    </vehicle>
    <vehicle id="veh_307" type="motorcycle" depart="558">
        <route edges="4588647 -4588647 -917450542 1174874706"/>
    </vehicle>
    <vehicle id="veh_308" type="motorcycle" depart="562">
        <route edges="-917450542 1174874706"/>
    </vehicle>
    <vehicle id="veh_309" type="motorcycle" depart="562">
        <route edges="1112806233 4588647 -4588647 -917450542"/>
    </vehicle>
    <vehicle id="veh_310" type="motorcycle" depart="566">
        <route edges="-917450542 917450542 4588647 -4588647"/>
    </vehicle>
    <vehicle id="veh_311" type="motorcycle" depart="571">
        <route edges="1112806233 4588647 -4588647"/>
    </vehicle>
    <vehicle id="veh_312" type="motorcycle" depart="574">
        <route edges="-917450542 917450542 4588647 -4588647"/>
    </vehicle>
    <vehicle id="veh_313" type="motorcycle" depart="580">
        <route edges="4588647 -4588647 -917450542 1174874706"/>
    </vehicle>
    <vehicle id="veh_314" type="motorcycle" depart="582">
        <route edges="1112806233 4588647 -4588647 -917450542"/>
    </vehicle>
    <vehicle id="veh_315" type="motorcycle" depart="587">
        <route edges="4588647 -4588647"/>
    </vehicle>
    <vehicle id="veh_316" type="motorcycle" depart="590">
        <route edges="1112806233 4588647 -4588647 -917450542 1174874706"/>
    </vehicle>
    <vehicle id="veh_317" type="motorcycle" depart="593">
        <route edges="4588647 -4588647 -917450542"/>
    </vehicle>
    <vehicle id="veh_318" type="motorcycle" depart="596">
        <route edges="-917450542 917450542 4588647 -4588647"/>
    </vehicle>
    <vehicle id="veh_319" type="motorcycle" depart="601">
        <route edges="-4588647 -917450542"/>
    </vehicle>
    <vehicle id="veh_320" type="motorcycle" depart="606">
        <route edges="-4588647 4588647"/>
    </vehicle>
    <vehicle id="veh_321" type="motorcycle" depart="609">
        <route edges="-4588647 -917450542"/>
    </vehicle>
    <vehicle id="veh_322" type="motorcycle" depart="616">
        <route edges="-4588647 -917450542"/>
    </vehicle>
    <vehicle id="veh_323" type="motorcycle" depart="620">
        <route edges="1112806233 4588647 -4588647 -917450542 1174874706"/>
    </vehicle>
    <vehicle id="veh_324" type="motorcycle" depart="623">
        <route edges="-917450542 917450542 4588647 -4588647"/>
    </vehicle>
    <vehicle id="veh_325" type="motorcycle" depart="625">
        <route edges="4588647 -4588647"/>
    </vehicle>
    <vehicle id="veh_326" type="motorcycle" depart="628">
        <route edges="-917450542 1174874706"/>
    </vehicle>
    <vehicle id="veh_327" type="motorcycle" depart="630">
        <route edges="4588647 -4588647 -917450542 1174874706"/>
    </vehicle>
    <vehicle id="veh_328" type="motorcycle" depart="631">
        <route edges="1112806233 4588647 -4588647"/>
    </vehicle>
    <vehicle id="veh_329" type="motorcycle" depart="637">
        <route edges="-917450542 1174874706"/>
    </vehicle>
    <vehicle id="veh_330" type="motorcycle" depart="639">
        <route edges="1112806233 4588647"/>
    </vehicle>
    <vehicle id="veh_331" type="motorcycle" depart="641">
        <route edges="-4588647 4588647"/>
    </vehicle>
    <vehicle id="veh_332" type="motorcycle" depart="644">
        <route edges="-917450542 917450542 4588647"/>
    </vehicle>
    <vehicle id="veh_333" type="motorcycle" depart="647">
        <route edges="4588647 -4588647"/>
    </vehicle>
    <vehicle id="veh_334" type="motorcycle" depart="649">
        <route edges="4588647 -4588647 -917450542"/>
    </vehicle>
    <vehicle id="veh_335" type="motorcycle" depart="654">
        <route edges="1112806233 4588647"/>
    </vehicle>
    <vehicle id="veh_336" type="motorcycle" depart="659">
        <route edges="1112806233 4588647 -4588647"/>
    </vehicle>
    <vehicle id="veh_337" type="motorcycle" depart="664">
        <route edges="1112806233 4588647"/>
    </vehicle>
    <vehicle id="veh_338" type="motorcycle" depart="664">
        <route edges="4588647 -4588647 -917450542"/>
    </vehicle>
    <vehicle id="veh_339" type="motorcycle" depart="667">
        <route edges="4588647 -4588647 -917450542 1174874706"/>
    </vehicle>
    <vehicle id="veh_340" type="motorcycle" depart="671">
        <route edges="-4588647 -917450542 1174874706"/>
    </vehicle>
    <vehicle id="veh_341" type="motorcycle" depart="674">
        <route edges="-4588647 -917450542 1174874706"/>
    </vehicle>
    <vehicle id="veh_342" type="motorcycle" depart="675">
        <route edges="4588647 -4588647 -917450542 1174874706"/>
    </vehicle>
    <vehicle id="veh_343" type="motorcycle" depart="676">
        <route edges="4588647 -4588647"/>
    </vehicle>
    <vehicle id="veh_344" type="motorcycle" depart="677">
        <route edges="-917450542 917450542 4588647"/>
    </vehicle>
    <vehicle id="veh_345" type="motorcycle" depart="678">
        <route edges="1112806233 4588647 -4588647 -917450542"/>
    </vehicle>
    <vehicle id="veh_346" type="motorcycle" depart="680">
        <route edges="1112806233 4588647 -4588647 -917450542"/>
    </vehicle>
    <vehicle id="veh_347" type="motorcycle" depart="684">
        <route edges="4588647 -4588647 -917450542 1174874706"/>
    </vehicle>
    <vehicle id="veh_348" type="motorcycle" depart="687">
        <route edges="1112806233 4588647 -4588647 -917450542 1174874706"/>
    </vehicle>
    <vehicle id="veh_349" type="motorcycle" depart="689">
        <route edges="4588647 -4588647 -917450542 1174874706"/>
    </vehicle>
    <vehicle id="veh_350" type="motorcycle" depart="692">
        <route edges="-4588647 -917450542"/>
    </vehicle>
    <vehicle id="veh_351" type="motorcycle" depart="697">
        <route edges="-917450542 917450542 4588647 -4588647"/>
    </vehicle>
    <vehicle id="veh_352" type="motorcycle" depart="699">
        <route edges="-917450542 917450542 4588647"/>
    </vehicle>
    <vehicle id="veh_353" type="motorcycle" depart="702">
        <route edges="4588647 -4588647"/>
    </vehicle>
    <vehicle id="veh_354" type="motorcycle" depart="706">
        <route edges="-917450542 917450542 4588647 -4588647"/>
    </vehicle>
    <vehicle id="veh_355" type="motorcycle" depart="709">
        <route edges="-4588647 -917450542 1174874706"/>
    </vehicle>
    <vehicle id="veh_356" type="motorcycle" depart="711">
        <route edges="-4588647 -917450542 1174874706"/>
    </vehicle>
    <vehicle id="veh_357" type="motorcycle" depart="711">
        <route edges="4588647 -4588647 -917450542 1174874706"/>
    </vehicle>
    <vehicle id="veh_358" type="motorcycle" depart="712">
        <route edges="1112806233 4588647 -4588647"/>
    </vehicle>
    <vehicle id="veh_359" type="motorcycle" depart="715">
        <route edges="1112806233 4588647 -4588647"/>
    </vehicle>
    <vehicle id="veh_360" type="motorcycle" depart="716">
        <route edges="-917450542 1174874706"/>
    </vehicle>
    <vehicle id="veh_361" type="motorcycle" depart="724">
        <route edges="-917450542 917450542 4588647"/>
    </vehicle>
    <vehicle id="veh_362" type="motorcycle" depart="725">
        <route edges="1112806233 4588647 -4588647 -917450542"/>
    </vehicle>
    <vehicle id="veh_363" type="motorcycle" depart="727">
        <route edges="4588647 -4588647 -917450542"/>
    </vehicle>
    <vehicle id="veh_364" type="motorcycle" depart="732">
        <route edges="-4588647 -917450542"/>
    </vehicle>
    <vehicle id="veh_365" type="motorcycle" depart="737">
        <route edges="-917450542 1174874706"/>
    </vehicle>
    <vehicle id="veh_366" type="motorcycle" depart="739">
        <route edges="-917450542 917450542 4588647 -4588647"/>
    </vehicle>
    <vehicle id="veh_367" type="motorcycle" depart="744">
        <route edges="-4588647 -917450542 1174874706"/>
    </vehicle>
    <vehicle id="veh_368" type="motorcycle" depart="745">
        <route edges="1112806233 4588647 -4588647"/>
    </vehicle>
    <vehicle id="veh_369" type="motorcycle" depart="750">
        <route edges="1112806233 4588647"/>
    </vehicle>
    <vehicle id="veh_370" type="motorcycle" depart="754">
        <route edges="1112806233 4588647 -4588647 -917450542"/>
    </vehicle>
    <vehicle id="veh_371" type="motorcycle" depart="755">
        <route edges="4588647 -4588647 -917450542"/>
    </vehicle>
    <vehicle id="veh_372" type="motorcycle" depart="757">
        <route edges="4588647 -4588647"/>
    </vehicle>
    <vehicle id="veh_373" type="motorcycle" depart="758">
        <route edges="1112806233 4588647 -4588647"/>
    </vehicle>
    <vehicle id="veh_374" type="motorcycle" depart="760">
        <route edges="4588647 -4588647"/>
    </vehicle>
    <vehicle id="veh_375" type="motorcycle" depart="764">
        <route edges="-917450542 1174874706"/>
    </vehicle>
    <vehicle id="veh_376" type="motorcycle" depart="767">
        <route edges="-4588647 -917450542 1174874706"/>
    </vehicle>
    <vehicle id="veh_377" type="motorcycle" depart="768">
        <route edges="-4588647 -917450542 1174874706"/>
    </vehicle>
    <vehicle id="veh_378" type="motorcycle" depart="771">
        <route edges="1112806233 4588647 -4588647 -917450542 1174874706"/>
    </vehicle>
    <vehicle id="veh_379" type="motorcycle" depart="775">
        <route edges="-917450542 1174874706"/>
    </vehicle>
    <vehicle id="veh_380" type="motorcycle" depart="778">
        <route edges="1112806233 4588647 -4588647 -917450542 1174874706"/>
    </vehicle>
    <vehicle id="veh_381" type="motorcycle" depart="782">
        <route edges="4588647 -4588647 -917450542"/>
    </vehicle>
    <vehicle id="veh_382" type="motorcycle" depart="783">
        <route edges="-4588647 4588647"/>
    </vehicle>
    <vehicle id="veh_383" type="motorcycle" depart="784">
        <route edges="-917450542 917450542 4588647 -4588647"/>
    </vehicle>
    <vehicle id="veh_384" type="motorcycle" depart="786">
        <route edges="-4588647 -917450542"/>
    </vehicle>
    <vehicle id="veh_385" type="motorcycle" depart="787">
        <route edges="4588647 -4588647 -917450542"/>
    </vehicle>
    <vehicle id="veh_386" type="motorcycle" depart="790">
        <route edges="1112806233 4588647 -4588647"/>
    </vehicle>
    <vehicle id="veh_387" type="motorcycle" depart="793">
        <route edges="4588647 -4588647 -917450542"/>
    </vehicle>
    <vehicle id="veh_388" type="motorcycle" depart="801">
        <route edges="-4588647 -917450542 1174874706"/>
    </vehicle>
    <vehicle id="veh_389" type="motorcycle" depart="806">
        <route edges="1112806233 4588647 -4588647 -917450542 1174874706"/>
    </vehicle>
    <vehicle id="veh_390" type="motorcycle" depart="808">
        <route edges="4588647 -4588647 -917450542 1174874706"/>
    </vehicle>
    <vehicle id="veh_391" type="motorcycle" depart="811">
        <route edges="1112806233 4588647 -4588647"/>
    </vehicle>
    <vehicle id="veh_392" type="motorcycle" depart="816">
        <route edges="-917450542 917450542 4588647 -4588647"/>
    </vehicle>
    <vehicle id="veh_393" type="motorcycle" depart="818">
        <route edges="4588647 -4588647 -917450542"/>
    </vehicle>
    <vehicle id="veh_394" type="motorcycle" depart="821">
        <route edges="1112806233 4588647 -4588647 -917450542"/>
    </vehicle>
    <vehicle id="veh_395" type="motorcycle" depart="825">
        <route edges="1112806233 4588647"/>
    </vehicle>
    <vehicle id="veh_396" type="motorcycle" depart="827">
        <route edges="4588647 -4588647 -917450542 1174874706"/>
    </vehicle>
    <vehicle id="veh_397" type="motorcycle" depart="830">
        <route edges="-917450542 917450542 4588647 -4588647"/>
    </vehicle>
    <vehicle id="veh_398" type="motorcycle" depart="832">
        <route edges="-4588647 4588647"/>
    </vehicle>
    <vehicle id="veh_399" type="motorcycle" depart="836">
        <route edges="-917450542 917450542 4588647 -4588647"/>
    </vehicle>
    <vehicle id="veh_400" type="motorcycle" depart="840">
        <route edges="-4588647 -917450542"/>
    </vehicle>
    <vehicle id="veh_401" type="motorcycle" depart="844">
        <route edges="-4588647 -917450542 1174874706"/>
    </vehicle>
    <vehicle id="veh_402" type="motorcycle" depart="848">
        <route edges="4588647 -4588647 -917450542"/>
    </vehicle>
    <vehicle id="veh_403" type="motorcycle" depart="851">
        <route edges="1112806233 4588647 -4588647 -917450542 1174874706"/>
    </vehicle>
    <vehicle id="veh_404" type="motorcycle" depart="851">
        <route edges="-4588647 -917450542 1174874706"/>
    </vehicle>
    <vehicle id="veh_405" type="motorcycle" depart="854">
        <route edges="-917450542 917450542 4588647"/>
    </vehicle>
    <vehicle id="veh_406" type="motorcycle" depart="857">
        <route edges="1112806233 4588647 -4588647"/>
    </vehicle>
    <vehicle id="veh_407" type="motorcycle" depart="860">
        <route edges="1112806233 4588647"/>
    </vehicle>
    <vehicle id="veh_408" type="motorcycle" depart="868">
        <route edges="1112806233 4588647 -4588647 -917450542 1174874706"/>
    </vehicle>
    <vehicle id="veh_409" type="motorcycle" depart="870">
        <route edges="-917450542 917450542 4588647 -4588647"/>
    </vehicle>
    <vehicle id="veh_410" type="motorcycle" depart="876">
        <route edges="-917450542 917450542 4588647 -4588647"/>
    </vehicle>
    <vehicle id="veh_411" type="motorcycle" depart="881">
        <route edges="1112806233 4588647 -4588647"/>
    </vehicle>
    <vehicle id="veh_412" type="motorcycle" depart="885">
        <route edges="-4588647 -917450542"/>
    </vehicle>
    <vehicle id="veh_413" type="motorcycle" depart="886">
        <route edges="-4588647 -917450542"/>
    </vehicle>
    <vehicle id="veh_414" type="motorcycle" depart="889">
        <route edges="4588647 -4588647"/>
    </vehicle>
    <vehicle id="veh_415" type="motorcycle" depart="891">
        <route edges="1112806233 4588647 -4588647 -917450542 1174874706"/>
    </vehicle>
    <vehicle id="veh_416" type="motorcycle" depart="895">
        <route edges="4588647 -4588647 -917450542 1174874706"/>
    </vehicle>
    <vehicle id="veh_417" type="motorcycle" depart="899">
        <route edges="1112806233 4588647 -4588647 -917450542 1174874706"/>
    </vehicle>
    <vehicle id="veh_418" type="truck" depart="45">
        <route edges="4588647 -4588647 -917450542 1174874706"/>
    </vehicle>
    <vehicle id="veh_419" type="truck" depart="88">
        <route edges="4588647 -4588647 -917450542"/>
    </vehicle>
    <vehicle id="veh_420" type="truck" depart="135">
        <route edges="-4588647 4588647"/>
    </vehicle>
    <vehicle id="veh_421" type="truck" depart="177">
        <route edges="-917450542 917450542 4588647"/>
    </vehicle>
    <vehicle id="veh_422" type="truck" depart="225">
        <route edges="-4588647 4588647"/>
    </vehicle>
    <vehicle id="veh_423" type="truck" depart="269">
        <route edges="1112806233 4588647 -4588647"/>
    </vehicle>
    <vehicle id="veh_424" type="truck" depart="320">
        <route edges="-4588647 4588647"/>
    </vehicle>
    <vehicle id="veh_425" type="truck" depart="375">
        <route edges="-4588647 -917450542"/>
    </vehicle>
    <vehicle id="veh_426" type="truck" depart="417">
        <route edges="-4588647 -917450542"/>
    </vehicle>
    <vehicle id="veh_427" type="truck" depart="464">
        <route edges="-4588647 4588647"/>
    </vehicle>
    <vehicle id="veh_428" type="truck" depart="513">
        <route edges="-917450542 1174874706"/>
    </vehicle>
    <vehicle id="veh_429" type="truck" depart="562">
        <route edges="-917450542 917450542 4588647"/>
    </vehicle>
    <vehicle id="veh_430" type="truck" depart="601">
        <route edges="4588647 -4588647"/>
    </vehicle>
    <vehicle id="veh_431" type="truck" depart="663">
        <route edges="-917450542 917450542 4588647 -4588647"/>
    </vehicle>
    <vehicle id="veh_432" type="truck" depart="707">
        <route edges="1112806233 4588647 -4588647"/>
    </vehicle>
    <vehicle id="veh_433" type="truck" depart="747">
        <route edges="1112806233 4588647 -4588647 -917450542"/>
    </vehicle>
    <vehicle id="veh_434" type="truck" depart="791">
        <route edges="4588647 -4588647 -917450542"/>
    </vehicle>
    <vehicle id="veh_435" type="truck" depart="829">
        <route edges="-917450542 917450542 4588647"/>
    </vehicle>
    <vehicle id="veh_436" type="truck" depart="872">
        <route edges="-917450542 917450542 4588647 -4588647"/>
    </vehicle>
    <vehicle id="veh_437" type="bus" depart="48">
        <route edges="1112806233 4588647"/>
    </vehicle>
    <vehicle id="veh_438" type="bus" depart="90">
        <route edges="4588647 -4588647"/>
    </vehicle>
    <vehicle id="veh_439" type="bus" depart="140">
        <route edges="1112806233 4588647 -4588647 -917450542 1174874706"/>
    </vehicle>
    <vehicle id="veh_440" type="bus" depart="176">
        <route edges="-917450542 1174874706"/>
    </vehicle>
    <vehicle id="veh_441" type="bus" depart="225">
        <route edges="1112806233 4588647 -4588647 -917450542"/>
    </vehicle>
    <vehicle id="veh_442" type="bus" depart="269">
        <route edges="1112806233 4588647 -4588647 -917450542"/>
    </vehicle>
    <vehicle id="veh_443" type="bus" depart="317">
        <route edges="4588647 -4588647"/>
    </vehicle>
    <vehicle id="veh_444" type="bus" depart="363">
        <route edges="1112806233 4588647 -4588647 -917450542"/>
    </vehicle>
    <vehicle id="veh_445" type="bus" depart="396">
        <route edges="1112806233 4588647 -4588647"/>
    </vehicle>
    <vehicle id="veh_446" type="bus" depart="440">
        <route edges="-917450542 917450542 4588647 -4588647"/>
    </vehicle>
    <vehicle id="veh_447" type="bus" depart="485">
        <route edges="-917450542 917450542 4588647 -4588647"/>
    </vehicle>
    <vehicle id="veh_448" type="bus" depart="540">
        <route edges="-4588647 -917450542 1174874706"/>
    </vehicle>
    <vehicle id="veh_449" type="bus" depart="575">
        <route edges="1112806233 4588647 -4588647 -917450542"/>
    </vehicle>
    <vehicle id="veh_450" type="bus" depart="618">
        <route edges="1112806233 4588647 -4588647 -917450542"/>
    </vehicle>
    <vehicle id="veh_451" type="bus" depart="666">
        <route edges="4588647 -4588647 -917450542 1174874706"/>
    </vehicle>
    <vehicle id="veh_452" type="bus" depart="715">
        <route edges="-917450542 1174874706"/>
    </vehicle>
    <vehicle id="veh_453" type="bus" depart="763">
        <route edges="-917450542 1174874706"/>
    </vehicle>
    <vehicle id="veh_454" type="bus" depart="817">
        <route edges="4588647 -4588647 -917450542 1174874706"/>
    </vehicle>
    <vehicle id="veh_455" type="bus" depart="868">
        <route edges="-4588647 4588647"/>
    </vehicle>
    <vehicle id="veh_456" type="car" depart="904">
        <route edges="4588647 -4588647 -917450542 1174874706"/>
    </vehicle>
    <vehicle id="veh_457" type="car" depart="920">
        <route edges="-917450542 917450542 4588647 -4588647"/>
    </vehicle>
    <vehicle id="veh_458" type="car" depart="932">
        <route edges="1112806233 4588647 -4588647"/>
    </vehicle>
    <vehicle id="veh_459" type="car" depart="944">
        <route edges="-917450542 917450542 4588647 -4588647"/>
    </vehicle>
    <vehicle id="veh_460" type="car" depart="960">
        <route edges="-917450542 1174874706"/>
    </vehicle>
    <vehicle id="veh_461" type="car" depart="975">
        <route edges="4588647 -4588647 -917450542 1174874706"/>
    </vehicle>
    <vehicle id="veh_462" type="car" depart="983">
        <route edges="4588647 -4588647 -917450542 1174874706"/>
    </vehicle>
    <vehicle id="veh_463" type="car" depart="994">
        <route edges="1112806233 4588647 -4588647 -917450542 1174874706"/>
    </vehicle>
    <vehicle id="veh_464" type="car" depart="998">
        <route edges="4588647 -4588647"/>
    </vehicle>
    <vehicle id="veh_465" type="car" depart="1012">
        <route edges="-4588647 4588647"/>
    </vehicle>
    <vehicle id="veh_466" type="car" depart="1019">
        <route edges="4588647 -4588647 -917450542"/>
    </vehicle>
    <vehicle id="veh_467" type="car" depart="1030">
        <route edges="4588647 -4588647 -917450542 1174874706"/>
    </vehicle>
    <vehicle id="veh_468" type="car" depart="1043">
        <route edges="1112806233 4588647 -4588647 -917450542 1174874706"/>
    </vehicle>
    <vehicle id="veh_469" type="car" depart="1053">
        <route edges="4588647 -4588647 -917450542"/>
    </vehicle>
    <vehicle id="veh_470" type="car" depart="1059">
        <route edges="-4588647 -917450542"/>
    </vehicle>
    <vehicle id="veh_471" type="car" depart="1073">
        <route edges="-917450542 917450542 4588647"/>
    </vehicle>
    <vehicle id="veh_472" type="car" depart="1096">
        <route edges="1112806233 4588647 -4588647 -917450542"/>
    </vehicle>
    <vehicle id="veh_473" type="car" depart="1106">
        <route edges="-4588647 -917450542"/>
    </vehicle>
    <vehicle id="veh_474" type="car" depart="1112">
        <route edges="1112806233 4588647"/>
    </vehicle>
    <vehicle id="veh_475" type="car" depart="1120">
        <route edges="-4588647 -917450542 1174874706"/>
    </vehicle>
    <vehicle id="veh_476" type="car" depart="1128">
        <route edges="4588647 -4588647 -917450542 1174874706"/>
    </vehicle>
    <vehicle id="veh_477" type="car" depart="1138">
        <route edges="4588647 -4588647 -917450542"/>
    </vehicle>
    <vehicle id="veh_478" type="car" depart="1151">
        <route edges="4588647 -4588647 -917450542"/>
    </vehicle>
    <vehicle id="veh_479" type="car" depart="1161">
        <route edges="4588647 -4588647 -917450542"/>
    </vehicle>
    <vehicle id="veh_480" type="car" depart="1171">
        <route edges="-4588647 -917450542 1174874706"/>
    </vehicle>
    <vehicle id="veh_481" type="car" depart="1179">
        <route edges="1112806233 4588647 -4588647"/>
    </vehicle>
    <vehicle id="veh_482" type="car" depart="1186">
        <route edges="-917450542 1174874706"/>
    </vehicle>
    <vehicle id="veh_483" type="car" depart="1200">
        <route edges="-917450542 917450542 4588647"/>
    </vehicle>
    <vehicle id="veh_484" type="car" depart="1211">
        <route edges="4588647 -4588647 -917450542 1174874706"/>
    </vehicle>
    <vehicle id="veh_485" type="car" depart="1220">
        <route edges="4588647 -4588647"/>
    </vehicle>
    <vehicle id="veh_486" type="car" depart="1230">
        <route edges="4588647 -4588647"/>
    </vehicle>
    <vehicle id="veh_487" type="car" depart="1242">
        <route edges="-917450542 917450542 4588647 -4588647"/>
    </vehicle>
    <vehicle id="veh_488" type="car" depart="1256">
        <route edges="-917450542 917450542 4588647"/>
    </vehicle>
    <vehicle id="veh_489" type="car" depart="1267">
        <route edges="4588647 -4588647 -917450542"/>
    </vehicle>
    <vehicle id="veh_490" type="car" depart="1278">
        <route edges="4588647 -4588647"/>
    </vehicle>
    <vehicle id="veh_491" type="car" depart="1293">
        <route edges="1112806233 4588647"/>
    </vehicle>
    <vehicle id="veh_492" type="car" depart="1303">
        <route edges="1112806233 4588647"/>
    </vehicle>
    <vehicle id="veh_493" type="car" depart="1311">
        <route edges="-4588647 -917450542"/>
    </vehicle>
    <vehicle id="veh_494" type="car" depart="1323">
        <route edges="1112806233 4588647 -4588647"/>
    </vehicle>
    <vehicle id="veh_495" type="car" depart="1332">
        <route edges="-917450542 917450542 4588647"/>
    </vehicle>
    <vehicle id="veh_496" type="car" depart="1339">
        <route edges="-917450542 917450542 4588647 -4588647"/>
    </vehicle>
    <vehicle id="veh_497" type="car" depart="1349">
        <route edges="4588647 -4588647"/>
    </vehicle>
    <vehicle id="veh_498" type="car" depart="1358">
        <route edges="1112806233 4588647 -4588647"/>
    </vehicle>
    <vehicle id="veh_499" type="car" depart="1372">
        <route edges="1112806233 4588647 -4588647 -917450542"/>
    </vehicle>
    <vehicle id="veh_500" type="car" depart="1383">
        <route edges="1112806233 4588647 -4588647"/>
    </vehicle>
    <vehicle id="veh_501" type="car" depart="1401">
        <route edges="1112806233 4588647 -4588647 -917450542"/>
    </vehicle>
    <vehicle id="veh_502" type="car" depart="1414">
        <route edges="1112806233 4588647 -4588647 -917450542 1174874706"/>
    </vehicle>
    <vehicle id="veh_503" type="car" depart="1430">
        <route edges="-4588647 -917450542"/>
    </vehicle>
    <vehicle id="veh_504" type="car" depart="1440">
        <route edges="-4588647 4588647"/>
    </vehicle>
    <vehicle id="veh_505" type="car" depart="1449">
        <route edges="4588647 -4588647 -917450542"/>
    </vehicle>
    <vehicle id="veh_506" type="car" depart="1458">
        <route edges="-4588647 -917450542"/>
    </vehicle>
    <vehicle id="veh_507" type="car" depart="1468">
        <route edges="4588647 -4588647 -917450542 1174874706"/>
    </vehicle>
    <vehicle id="veh_508" type="car" depart="1476">
        <route edges="-917450542 1174874706"/>
    </vehicle>
    <vehicle id="veh_509" type="car" depart="1487">
        <route edges="1112806233 4588647"/>
    </vehicle>
    <vehicle id="veh_510" type="car" depart="1501">
        <route edges="-4588647 4588647"/>
    </vehicle>
    <vehicle id="veh_511" type="car" depart="1510">
        <route edges="1112806233 4588647 -4588647 -917450542 1174874706"/>
    </vehicle>
    <vehicle id="veh_512" type="car" depart="1514">
        <route edges="-4588647 -917450542"/>
    </vehicle>
    <vehicle id="veh_513" type="car" depart="1530">
        <route edges="-917450542 1174874706"/>
    </vehicle>
    <vehicle id="veh_514" type="car" depart="1546">
        <route edges="-4588647 4588647"/>
    </vehicle>
    <vehicle id="veh_515" type="car" depart="1566">
        <route edges="-4588647 -917450542 1174874706"/>
    </vehicle>
    <vehicle id="veh_516" type="car" depart="1581">
        <route edges="1112806233 4588647 -4588647"/>
    </vehicle>
    <vehicle id="veh_517" type="car" depart="1592">
        <route edges="-917450542 917450542 4588647 -4588647"/>
    </vehicle>
    <vehicle id="veh_518" type="car" depart="1599">
        <route edges="-4588647 4588647"/>
    </vehicle>
    <vehicle id="veh_519" type="car" depart="1609">
        <route edges="-4588647 -917450542 1174874706"/>
    </vehicle>
    <vehicle id="veh_520" type="car" depart="1616">
        <route edges="4588647 -4588647 -917450542 1174874706"/>
    </vehicle>
    <vehicle id="veh_521" type="car" depart="1625">
        <route edges="4588647 -4588647"/>
    </vehicle>
    <vehicle id="veh_522" type="car" depart="1638">
        <route edges="-917450542 1174874706"/>
    </vehicle>
    <vehicle id="veh_523" type="car" depart="1647">
        <route edges="-917450542 917450542 4588647 -4588647"/>
    </vehicle>
    <vehicle id="veh_524" type="car" depart="1659">
        <route edges="-917450542 917450542 4588647 -4588647"/>
    </vehicle>
    <vehicle id="veh_525" type="car" depart="1671">
        <route edges="-4588647 4588647"/>
    </vehicle>
    <vehicle id="veh_526" type="car" depart="1684">
        <route edges="1112806233 4588647 -4588647 -917450542"/>
    </vehicle>
    <vehicle id="veh_527" type="car" depart="1697">
        <route edges="4588647 -4588647 -917450542"/>
    </vehicle>
    <vehicle id="veh_528" type="car" depart="1708">
        <route edges="-4588647 4588647"/>
    </vehicle>
    <vehicle id="veh_529" type="car" depart="1717">
        <route edges="4588647 -4588647 -917450542"/>
    </vehicle>
    <vehicle id="veh_530" type="car" depart="1728">
        <route edges="-4588647 -917450542"/>
    </vehicle>
    <vehicle id="veh_531" type="car" depart="1735">
        <route edges="-917450542 917450542 4588647"/>
    </vehicle>
    <vehicle id="veh_532" type="car" depart="1744">
        <route edges="1112806233 4588647 -4588647 -917450542 1174874706"/>
    </vehicle>
    <vehicle id="veh_533" type="car" depart="1754">
        <route edges="-917450542 917450542 4588647"/>
    </vehicle>
    <vehicle id="veh_534" type="car" depart="1771">
        <route edges="-4588647 -917450542"/>
    </vehicle>
    <vehicle id="veh_535" type="car" depart="1781">
        <route edges="1112806233 4588647 -4588647 -917450542"/>
    </vehicle>
    <vehicle id="veh_536" type="bicycle" depart="964">
        <route edges="1112806233 4588647 -4588647 -917450542 1174874706"/>
    </vehicle>
    <vehicle id="veh_537" type="bicycle" depart="1025">
        <route edges="-917450542 917450542 4588647 -4588647"/>
    </vehicle>
    <vehicle id="veh_538" type="bicycle" depart="1096">
        <route edges="1112806233 4588647"/>
    </vehicle>
    <vehicle id="veh_539" type="bicycle" depart="1149">
        <route edges="1112806233 4588647 -4588647"/>
    </vehicle>
    <vehicle id="veh_540" type="bicycle" depart="1207">
        <route edges="-917450542 1174874706"/>
    </vehicle>
    <vehicle id="veh_541" type="bicycle" depart="1277">
        <route edges="4588647 -4588647 -917450542 1174874706"/>
    </vehicle>
    <vehicle id="veh_542" type="bicycle" depart="1332">
        <route edges="-917450542 917450542 4588647"/>
    </vehicle>
    <vehicle id="veh_543" type="bicycle" depart="1391">
        <route edges="-917450542 917450542 4588647 -4588647"/>
    </vehicle>
    <vehicle id="veh_544" type="bicycle" depart="1455">
        <route edges="-4588647 -917450542"/>
    </vehicle>
    <vehicle id="veh_545" type="bicycle" depart="1507">
        <route edges="-917450542 917450542 4588647 -4588647"/>
    </vehicle>
    <vehicle id="veh_546" type="bicycle" depart="1566">
        <route edges="-917450542 1174874706"/>
    </vehicle>
    <vehicle id="veh_547" type="bicycle" depart="1635">
        <route edges="-4588647 -917450542"/>
    </vehicle>
    <vehicle id="veh_548" type="bicycle" depart="1692">
        <route edges="-4588647 -917450542"/>
    </vehicle>
    <vehicle id="veh_549" type="bicycle" depart="1746">
        <route edges="1112806233 4588647 -4588647 -917450542 1174874706"/>
    </vehicle>
    <vehicle id="veh_550" type="motorcycle" depart="904">
        <route edges="4588647 -4588647 -917450542"/>
    </vehicle>
    <vehicle id="veh_551" type="motorcycle" depart="904">
        <route edges="-917450542 1174874706"/>
    </vehicle>
    <vehicle id="veh_552" type="motorcycle" depart="905">
        <route edges="1112806233 4588647 -4588647 -917450542 1174874706"/>
    </vehicle>
    <vehicle id="veh_553" type="motorcycle" depart="906">
        <route edges="1112806233 4588647 -4588647 -917450542 1174874706"/>
    </vehicle>
    <vehicle id="veh_554" type="motorcycle" depart="906">
        <route edges="-4588647 4588647"/>
    </vehicle>
    <vehicle id="veh_555" type="motorcycle" depart="910">
        <route edges="-4588647 -917450542"/>
    </vehicle>
    <vehicle id="veh_556" type="motorcycle" depart="913">
        <route edges="-4588647 4588647"/>
    </vehicle>
    <vehicle id="veh_557" type="motorcycle" depart="913">
        <route edges="1112806233 4588647 -4588647 -917450542"/>
    </vehicle>
    <vehicle id="veh_558" type="motorcycle" depart="916">
        <route edges="-917450542 917450542 4588647"/>
    </vehicle>
    <vehicle id="veh_559" type="motorcycle" depart="917">
        <route edges="-917450542 917450542 4588647 -4588647"/>
    </vehicle>
    <vehicle id="veh_560" type="motorcycle" depart="919">
        <route edges="-4588647 4588647"/>
    </vehicle>
    <vehicle id="veh_561" type="motorcycle" depart="920">
        <route edges="-4588647 -917450542"/>
    </vehicle>
    <vehicle id="veh_562" type="motorcycle" depart="923">
        <route edges="1112806233 4588647"/>
    </vehicle>
    <vehicle id="veh_563" type="motorcycle" depart="923">
        <route edges="4588647 -4588647 -917450542"/>
    </vehicle>
    <vehicle id="veh_564" type="motorcycle" depart="924">
        <route edges="4588647 -4588647 -917450542"/>
    </vehicle>
    <vehicle id="veh_565" type="motorcycle" depart="924">
        <route edges="1112806233 4588647"/>
    </vehicle>
    <vehicle id="veh_566" type="motorcycle" depart="924">
        <route edges="1112806233 4588647 -4588647 -917450542"/>
    </vehicle>
    <vehicle id="veh_567" type="motorcycle" depart="927">
        <route edges="1112806233 4588647"/>
    </vehicle>
    <vehicle id="veh_568" type="motorcycle" depart="927">
        <route edges="4588647 -4588647"/>
    </vehicle>
    <vehicle id="veh_569" type="motorcycle" depart="929">
        <route edges="1112806233 4588647 -4588647 -917450542 1174874706"/>
    </vehicle>
    <vehicle id="veh_570" type="motorcycle" depart="929">
        <route edges="1112806233 4588647 -4588647"/>
    </vehicle>
    <vehicle id="veh_571" type="motorcycle" depart="929">
        <route edges="-4588647 -917450542"/>
    </vehicle>
    <vehicle id="veh_572" type="motorcycle" depart="930">
        <route edges="-917450542 1174874706"/>
    </vehicle>
    <vehicle id="veh_573" type="motorcycle" depart="932">
        <route edges="-917450542 917450542 4588647"/>
    </vehicle>
    <vehicle id="veh_574" type="motorcycle" depart="932">
        <route edges="-917450542 917450542 4588647"/>
    </vehicle>
    <vehicle id="veh_575" type="motorcycle" depart="935">
        <route edges="-917450542 917450542 4588647"/>
    </vehicle>
    <vehicle id="veh_576" type="motorcycle" depart="936">
        <route edges="-4588647 -917450542 1174874706"/>
    </vehicle>
    <vehicle id="veh_577" type="motorcycle" depart="936">
        <route edges="-4588647 4588647"/>
    </vehicle>
    <vehicle id="veh_578" type="motorcycle" depart="939">
        <route edges="-917450542 917450542 4588647"/>
    </vehicle>
    <vehicle id="veh_579" type="motorcycle" depart="940">
        <route edges="1112806233 4588647 -4588647 -917450542"/>
    </vehicle>
    <vehicle id="veh_580" type="motorcycle" depart="941">
        <route edges="1112806233 4588647 -4588647 -917450542"/>
    </vehicle>
    <vehicle id="veh_581" type="motorcycle" depart="942">
        <route edges="-4588647 4588647"/>
    </vehicle>
    <vehicle id="veh_582" type="motorcycle" depart="944">
        <route edges="-4588647 4588647"/>
    </vehicle>
    <vehicle id="veh_583" type="motorcycle" depart="944">
        <route edges="4588647 -4588647 -917450542 1174874706"/>
    </vehicle>
    <vehicle id="veh_584" type="motorcycle" depart="946">
        <route edges="1112806233 4588647 -4588647 -917450542"/>
    </vehicle>
    <vehicle id="veh_585" type="motorcycle" depart="948">
        <route edges="-917450542 917450542 4588647 -4588647"/>
    </vehicle>
    <vehicle id="veh_586" type="motorcycle" depart="952">
        <route edges="1112806233 4588647 -4588647 -917450542"/>
    </vehicle>
    <vehicle id="veh_587" type="motorcycle" depart="955">
        <route edges="1112806233 4588647 -4588647 -917450542 1174874706"/>
    </vehicle>
    <vehicle id="veh_588" type="motorcycle" depart="958">
        <route edges="-4588647 -917450542 1174874706"/>
    </vehicle>
    <vehicle id="veh_589" type="motorcycle" depart="961">
        <route edges="1112806233 4588647 -4588647"/>
    </vehicle>
    <vehicle id="veh_590" type="motorcycle" depart="961">
        <route edges="-4588647 -917450542 1174874706"/>
    </vehicle>
    <vehicle id="veh_591" type="motorcycle" depart="962">
        <route edges="-917450542 917450542 4588647 -4588647"/>
    </vehicle>
    <vehicle id="veh_592" type="motorcycle" depart="966">
        <route edges="4588647 -4588647 -917450542"/>
    </vehicle>
    <vehicle id="veh_593" type="motorcycle" depart="968">
        <route edges="4588647 -4588647"/>
    </vehicle>
    <vehicle id="veh_594" type="motorcycle" depart="970">
        <route edges="4588647 -4588647 -917450542"/>
    </vehicle>
    <vehicle id="veh_595" type="motorcycle" depart="971">
        <route edges="-917450542 1174874706"/>
    </vehicle>
    <vehicle id="veh_596" type="motorcycle" depart="973">
        <route edges="-917450542 1174874706"/>
    </vehicle>
    <vehicle id="veh_597" type="motorcycle" depart="974">
        <route edges="4588647 -4588647"/>
    </vehicle>
    <vehicle id="veh_598" type="motorcycle" depart="974">
        <route edges="1112806233 4588647 -4588647 -917450542"/>
    </vehicle>
    <vehicle id="veh_599" type="motorcycle" depart="976">
        <route edges="4588647 -4588647"/>
    </vehicle>
    <vehicle id="veh_600" type="motorcycle" depart="979">
        <route edges="1112806233 4588647 -4588647 -917450542"/>
    </vehicle>
    <vehicle id="veh_601" type="motorcycle" depart="981">
        <route edges="1112806233 4588647 -4588647"/>
    </vehicle>
    <vehicle id="veh_602" type="motorcycle" depart="982">
        <route edges="-917450542 917450542 4588647"/>
    </vehicle>
    <vehicle id="veh_603" type="motorcycle" depart="982">
        <route edges="1112806233 4588647"/>
    </vehicle>
    <vehicle id="veh_604" type="motorcycle" depart="985">
        <route edges="-4588647 -917450542 1174874706"/>
    </vehicle>
    <vehicle id="veh_605" type="motorcycle" depart="987">
        <route edges="1112806233 4588647 -4588647"/>
    </vehicle>
    <vehicle id="veh_606" type="motorcycle" depart="988">
        <route edges="-917450542 917450542 4588647"/>
    </vehicle>
    <vehicle id="veh_607" type="motorcycle" depart="991">
        <route edges="-917450542 917450542 4588647 -4588647"/>
    </vehicle>
    <vehicle id="veh_608" type="motorcycle" depart="993">
        <route edges="-4588647 -917450542"/>
    </vehicle>
    <vehicle id="veh_609" type="motorcycle" depart="994">
        <route edges="-4588647 -917450542 1174874706"/>
    </vehicle>
    <vehicle id="veh_610" type="motorcycle" depart="995">
        <route edges="4588647 -4588647 -917450542"/>
    </vehicle>
    <vehicle id="veh_611" type="motorcycle" depart="996">
        <route edges="4588647 -4588647"/>
    </vehicle>
    <vehicle id="veh_612" type="motorcycle" depart="996">
        <route edges="1112806233 4588647 -4588647 -917450542 1174874706"/>
    </vehicle>
    <vehicle id="veh_613" type="motorcycle" depart="997">
        <route edges="4588647 -4588647 -917450542 1174874706"/>
    </vehicle>
    <vehicle id="veh_614" type="motorcycle" depart="1000">
        <route edges="1112806233 4588647"/>
    </vehicle>
    <vehicle id="veh_615" type="motorcycle" depart="1004">
        <route edges="1112806233 4588647 -4588647 -917450542"/>
    </vehicle>
    <vehicle id="veh_616" type="motorcycle" depart="1007">
        <route edges="4588647 -4588647 -917450542 1174874706"/>
    </vehicle>
    <vehicle id="veh_617" type="motorcycle" depart="1009">
        <route edges="1112806233 4588647 -4588647"/>
    </vehicle>
    <vehicle id="veh_618" type="motorcycle" depart="1009">
        <route edges="-4588647 -917450542"/>
    </vehicle>
    <vehicle id="veh_619" type="motorcycle" depart="1011">
        <route edges="1112806233 4588647"/>
    </vehicle>
    <vehicle id="veh_620" type="motorcycle" depart="1011">
        <route edges="-917450542 917450542 4588647 -4588647"/>
    </vehicle>
    <vehicle id="veh_621" type="motorcycle" depart="1013">
        <route edges="1112806233 4588647 -4588647 -917450542 1174874706"/>
    </vehicle>
    <vehicle id="veh_622" type="motorcycle" depart="1014">
        <route edges="4588647 -4588647"/>
    </vehicle>
    <vehicle id="veh_623" type="motorcycle" depart="1016">
        <route edges="-917450542 917450542 4588647"/>
    </vehicle>
    <vehicle id="veh_624" type="motorcycle" depart="1021">
        <route edges="1112806233 4588647 -4588647"/>
    </vehicle>
    <vehicle id="veh_625" type="motorcycle" depart="1024">
        <route edges="-917450542 1174874706"/>
    </vehicle>
    <vehicle id="veh_626" type="motorcycle" depart="1025">
        <route edges="1112806233 4588647 -4588647"/>
    </vehicle>
    <vehicle id="veh_627" type="motorcycle" depart="1029">
        <route edges="1112806233 4588647 -4588647"/>
    </vehicle>
    <vehicle id="veh_628" type="motorcycle" depart="1030">
        <route edges="-917450542 917450542 4588647"/>
    </vehicle>
    <vehicle id="veh_629" type="motorcycle" depart="1031">
        <route edges="1112806233 4588647 -4588647 -917450542 1174874706"/>
    </vehicle>
    <vehicle id="veh_630" type="motorcycle" depart="1032">
        <route edges="1112806233 4588647"/>
    </vehicle>
    <vehicle id="veh_631" type="motorcycle" depart="1034">
        <route edges="4588647 -4588647 -917450542 1174874706"/>
    </vehicle>
    <vehicle id="veh_632" type="motorcycle" depart="1038">
        <route edges="1112806233 4588647"/>
    </vehicle>
    <vehicle id="veh_633" type="motorcycle" depart="1042">
        <route edges="1112806233 4588647"/>
    </vehicle>
    <vehicle id="veh_634" type="motorcycle" depart="1044">
        <route edges="-4588647 4588647"/>
    </vehicle>
    <vehicle id="veh_635" type="motorcycle" depart="1047">
        <route edges="1112806233 4588647 -4588647 -917450542"/>
    </vehicle>
    <vehicle id="veh_636" type="motorcycle" depart="1049">
        <route edges="1112806233 4588647"/>
    </vehicle>
[...]
        <route edges="4588647 -4588647 -917450542"/>
    </vehicle>
    <vehicle id="veh_4414" type="motorcycle" depart="6746">
        <route edges="-917450542 917450542 4588647 -4588647"/>
    </vehicle>
    <vehicle id="veh_4415" type="motorcycle" depart="6748">
        <route edges="-4588647 -917450542 1174874706"/>
    </vehicle>
    <vehicle id="veh_4416" type="motorcycle" depart="6754">
        <route edges="-917450542 917450542 4588647 -4588647"/>
    </vehicle>
    <vehicle id="veh_4417" type="motorcycle" depart="6757">
        <route edges="4588647 -4588647 -917450542"/>
    </vehicle>
    <vehicle id="veh_4418" type="motorcycle" depart="6759">
        <route edges="1112806233 4588647 -4588647"/>
    </vehicle>
    <vehicle id="veh_4419" type="motorcycle" depart="6762">
        <route edges="-4588647 -917450542 1174874706"/>
    </vehicle>
    <vehicle id="veh_4420" type="motorcycle" depart="6766">
        <route edges="4588647 -4588647"/>
    </vehicle>
    <vehicle id="veh_4421" type="motorcycle" depart="6769">
        <route edges="-4588647 -917450542 1174874706"/>
    </vehicle>
    <vehicle id="veh_4422" type="motorcycle" depart="6773">
        <route edges="4588647 -4588647 -917450542 1174874706"/>
    </vehicle>
    <vehicle id="veh_4423" type="motorcycle" depart="6774">
        <route edges="-4588647 4588647"/>
    </vehicle>
    <vehicle id="veh_4424" type="motorcycle" depart="6782">
        <route edges="-917450542 917450542 4588647"/>
    </vehicle>
    <vehicle id="veh_4425" type="motorcycle" depart="6789">
        <route edges="-4588647 -917450542 1174874706"/>
    </vehicle>
    <vehicle id="veh_4426" type="motorcycle" depart="6792">
        <route edges="-4588647 4588647"/>
    </vehicle>
    <vehicle id="veh_4427" type="motorcycle" depart="6795">
        <route edges="-4588647 -917450542 1174874706"/>
    </vehicle>
    <vehicle id="veh_4428" type="motorcycle" depart="6798">
        <route edges="-4588647 -917450542 1174874706"/>
    </vehicle>
    <vehicle id="veh_4429" type="motorcycle" depart="6801">
        <route edges="-917450542 917450542 4588647 -4588647"/>
    </vehicle>
    <vehicle id="veh_4430" type="motorcycle" depart="6807">
        <route edges="4588647 -4588647"/>
    </vehicle>
    <vehicle id="veh_4431" type="motorcycle" depart="6808">
        <route edges="-4588647 -917450542"/>
    </vehicle>
    <vehicle id="veh_4432" type="motorcycle" depart="6813">
        <route edges="4588647 -4588647 -917450542"/>
    </vehicle>
    <vehicle id="veh_4433" type="motorcycle" depart="6818">
        <route edges="1112806233 4588647"/>
    </vehicle>
    <vehicle id="veh_4434" type="motorcycle" depart="6820">
        <route edges="4588647 -4588647 -917450542"/>
    </vehicle>
    <vehicle id="veh_4435" type="motorcycle" depart="6824">
        <route edges="4588647 -4588647 -917450542 1174874706"/>
    </vehicle>
    <vehicle id="veh_4436" type="motorcycle" depart="6824">
        <route edges="-4588647 -917450542"/>
    </vehicle>
    <vehicle id="veh_4437" type="motorcycle" depart="6828">
        <route edges="1112806233 4588647"/>
    </vehicle>
    <vehicle id="veh_4438" type="motorcycle" depart="6831">
        <route edges="1112806233 4588647 -4588647"/>
    </vehicle>
    <vehicle id="veh_4439" type="motorcycle" depart="6834">
        <route edges="1112806233 4588647 -4588647 -917450542"/>
    </vehicle>
    <vehicle id="veh_4440" type="motorcycle" depart="6836">
        <route edges="4588647 -4588647 -917450542 1174874706"/>
    </vehicle>
    <vehicle id="veh_4441" type="motorcycle" depart="6837">
        <route edges="-917450542 917450542 4588647 -4588647"/>
    </vehicle>
    <vehicle id="veh_4442" type="motorcycle" depart="6839">
        <route edges="1112806233 4588647"/>
    </vehicle>
    <vehicle id="veh_4443" type="motorcycle" depart="6843">
        <route edges="-4588647 -917450542 1174874706"/>
    </vehicle>
    <vehicle id="veh_4444" type="motorcycle" depart="6851">
        <route edges="-917450542 917450542 4588647 -4588647"/>
    </vehicle>
    <vehicle id="veh_4445" type="motorcycle" depart="6855">
        <route edges="1112806233 4588647 -4588647 -917450542"/>
    </vehicle>
    <vehicle id="veh_4446" type="motorcycle" depart="6858">
        <route edges="4588647 -4588647 -917450542"/>
    </vehicle>
    <vehicle id="veh_4447" type="motorcycle" depart="6861">
        <route edges="-917450542 1174874706"/>
    </vehicle>
    <vehicle id="veh_4448" type="motorcycle" depart="6863">
        <route edges="1112806233 4588647 -4588647"/>
    </vehicle>
    <vehicle id="veh_4449" type="motorcycle" depart="6868">
        <route edges="1112806233 4588647 -4588647"/>
    </vehicle>
    <vehicle id="veh_4450" type="motorcycle" depart="6871">
        <route edges="4588647 -4588647"/>
    </vehicle>
    <vehicle id="veh_4451" type="motorcycle" depart="6876">
        <route edges="4588647 -4588647 -917450542"/>
    </vehicle>
    <vehicle id="veh_4452" type="motorcycle" depart="6883">
        <route edges="1112806233 4588647 -4588647"/>
    </vehicle>
    <vehicle id="veh_4453" type="motorcycle" depart="6884">
        <route edges="1112806233 4588647 -4588647 -917450542"/>
    </vehicle>
    <vehicle id="veh_4454" type="motorcycle" depart="6888">
        <route edges="1112806233 4588647 -4588647 -917450542"/>
    </vehicle>
    <vehicle id="veh_4455" type="motorcycle" depart="6892">
        <route edges="-4588647 -917450542 1174874706"/>
    </vehicle>
    <vehicle id="veh_4456" type="motorcycle" depart="6896">
        <route edges="-917450542 917450542 4588647 -4588647"/>
    </vehicle>
    <vehicle id="veh_4457" type="motorcycle" depart="6900">
        <route edges="-917450542 917450542 4588647 -4588647"/>
    </vehicle>
    <vehicle id="veh_4458" type="motorcycle" depart="6903">
        <route edges="1112806233 4588647 -4588647 -917450542 1174874706"/>
    </vehicle>
    <vehicle id="veh_4459" type="motorcycle" depart="6909">
        <route edges="4588647 -4588647 -917450542 1174874706"/>
    </vehicle>
    <vehicle id="veh_4460" type="motorcycle" depart="6914">
        <route edges="4588647 -4588647"/>
    </vehicle>
    <vehicle id="veh_4461" type="motorcycle" depart="6916">
        <route edges="1112806233 4588647 -4588647 -917450542 1174874706"/>
    </vehicle>
    <vehicle id="veh_4462" type="motorcycle" depart="6918">
        <route edges="-4588647 -917450542 1174874706"/>
    </vehicle>
    <vehicle id="veh_4463" type="motorcycle" depart="6923">
        <route edges="-917450542 1174874706"/>
    </vehicle>
    <vehicle id="veh_4464" type="motorcycle" depart="6927">
        <route edges="4588647 -4588647 -917450542 1174874706"/>
    </vehicle>
    <vehicle id="veh_4465" type="motorcycle" depart="6932">
        <route edges="4588647 -4588647"/>
    </vehicle>
    <vehicle id="veh_4466" type="motorcycle" depart="6938">
        <route edges="1112806233 4588647"/>
    </vehicle>
    <vehicle id="veh_4467" type="motorcycle" depart="6939">
        <route edges="4588647 -4588647"/>
    </vehicle>
    <vehicle id="veh_4468" type="motorcycle" depart="6939">
        <route edges="-4588647 4588647"/>
    </vehicle>
    <vehicle id="veh_4469" type="motorcycle" depart="6944">
        <route edges="-4588647 -917450542 1174874706"/>
    </vehicle>
    <vehicle id="veh_4470" type="motorcycle" depart="6946">
        <route edges="-917450542 917450542 4588647 -4588647"/>
    </vehicle>
    <vehicle id="veh_4471" type="motorcycle" depart="6950">
        <route edges="1112806233 4588647 -4588647 -917450542 1174874706"/>
    </vehicle>
    <vehicle id="veh_4472" type="motorcycle" depart="6956">
        <route edges="-4588647 4588647"/>
    </vehicle>
    <vehicle id="veh_4473" type="motorcycle" depart="6958">
        <route edges="1112806233 4588647 -4588647 -917450542"/>
    </vehicle>
    <vehicle id="veh_4474" type="motorcycle" depart="6960">
        <route edges="-917450542 917450542 4588647 -4588647"/>
    </vehicle>
    <vehicle id="veh_4475" type="motorcycle" depart="6962">
        <route edges="1112806233 4588647 -4588647 -917450542"/>
    </vehicle>
    <vehicle id="veh_4476" type="motorcycle" depart="6965">
        <route edges="4588647 -4588647 -917450542"/>
    </vehicle>
    <vehicle id="veh_4477" type="motorcycle" depart="6968">
        <route edges="-4588647 -917450542 1174874706"/>
    </vehicle>
    <vehicle id="veh_4478" type="motorcycle" depart="6968">
        <route edges="-4588647 -917450542"/>
    </vehicle>
    <vehicle id="veh_4479" type="motorcycle" depart="6971">
        <route edges="-917450542 1174874706"/>
    </vehicle>
    <vehicle id="veh_4480" type="motorcycle" depart="6976">
        <route edges="-4588647 4588647"/>
    </vehicle>
    <vehicle id="veh_4481" type="motorcycle" depart="6978">
        <route edges="4588647 -4588647 -917450542"/>
    </vehicle>
    <vehicle id="veh_4482" type="motorcycle" depart="6979">
        <route edges="-917450542 917450542 4588647 -4588647"/>
    </vehicle>
    <vehicle id="veh_4483" type="motorcycle" depart="6984">
        <route edges="1112806233 4588647 -4588647 -917450542"/>
    </vehicle>
    <vehicle id="veh_4484" type="motorcycle" depart="6987">
        <route edges="1112806233 4588647 -4588647 -917450542 1174874706"/>
    </vehicle>
    <vehicle id="veh_4485" type="motorcycle" depart="6989">
        <route edges="1112806233 4588647 -4588647"/>
    </vehicle>
    <vehicle id="veh_4486" type="motorcycle" depart="6994">
        <route edges="1112806233 4588647 -4588647 -917450542 1174874706"/>
    </vehicle>
    <vehicle id="veh_4487" type="motorcycle" depart="6996">
        <route edges="4588647 -4588647 -917450542 1174874706"/>
    </vehicle>
    <vehicle id="veh_4488" type="motorcycle" depart="6999">
        <route edges="4588647 -4588647 -917450542 1174874706"/>
    </vehicle>
    <vehicle id="veh_4489" type="motorcycle" depart="7009">
        <route edges="-917450542 917450542 4588647 -4588647"/>
    </vehicle>
    <vehicle id="veh_4490" type="motorcycle" depart="7011">
        <route edges="-917450542 917450542 4588647"/>
    </vehicle>
    <vehicle id="veh_4491" type="motorcycle" depart="7013">
        <route edges="1112806233 4588647 -4588647 -917450542"/>
    </vehicle>
    <vehicle id="veh_4492" type="motorcycle" depart="7018">
        <route edges="4588647 -4588647 -917450542"/>
    </vehicle>
    <vehicle id="veh_4493" type="motorcycle" depart="7021">
        <route edges="1112806233 4588647 -4588647 -917450542"/>
    </vehicle>
    <vehicle id="veh_4494" type="motorcycle" depart="7025">
        <route edges="-4588647 4588647"/>
    </vehicle>
    <vehicle id="veh_4495" type="motorcycle" depart="7031">
        <route edges="-4588647 -917450542 1174874706"/>
    </vehicle>
    <vehicle id="veh_4496" type="motorcycle" depart="7036">
        <route edges="1112806233 4588647 -4588647 -917450542 1174874706"/>
    </vehicle>
    <vehicle id="veh_4497" type="motorcycle" depart="7041">
        <route edges="1112806233 4588647 -4588647 -917450542 1174874706"/>
    </vehicle>
    <vehicle id="veh_4498" type="motorcycle" depart="7045">
        <route edges="1112806233 4588647 -4588647 -917450542"/>
    </vehicle>
    <vehicle id="veh_4499" type="motorcycle" depart="7048">
        <route edges="-4588647 -917450542 1174874706"/>
    </vehicle>
    <vehicle id="veh_4500" type="motorcycle" depart="7048">
        <route edges="1112806233 4588647 -4588647 -917450542"/>
    </vehicle>
    <vehicle id="veh_4501" type="motorcycle" depart="7053">
        <route edges="-917450542 917450542 4588647 -4588647"/>
    </vehicle>
    <vehicle id="veh_4502" type="motorcycle" depart="7055">
        <route edges="-917450542 917450542 4588647 -4588647"/>
    </vehicle>
    <vehicle id="veh_4503" type="motorcycle" depart="7059">
        <route edges="1112806233 4588647 -4588647 -917450542"/>
    </vehicle>
    <vehicle id="veh_4504" type="motorcycle" depart="7062">
        <route edges="1112806233 4588647 -4588647 -917450542"/>
    </vehicle>
    <vehicle id="veh_4505" type="motorcycle" depart="7069">
        <route edges="4588647 -4588647"/>
    </vehicle>
    <vehicle id="veh_4506" type="motorcycle" depart="7070">
        <route edges="-917450542 917450542 4588647"/>
    </vehicle>
    <vehicle id="veh_4507" type="motorcycle" depart="7073">
        <route edges="1112806233 4588647 -4588647 -917450542"/>
    </vehicle>
    <vehicle id="veh_4508" type="motorcycle" depart="7075">
        <route edges="1112806233 4588647 -4588647 -917450542 1174874706"/>
    </vehicle>
    <vehicle id="veh_4509" type="motorcycle" depart="7080">
        <route edges="-917450542 917450542 4588647 -4588647"/>
    </vehicle>
    <vehicle id="veh_4510" type="motorcycle" depart="7082">
        <route edges="1112806233 4588647 -4588647 -917450542"/>
    </vehicle>
    <vehicle id="veh_4511" type="motorcycle" depart="7085">
        <route edges="4588647 -4588647 -917450542"/>
    </vehicle>
    <vehicle id="veh_4512" type="motorcycle" depart="7090">
        <route edges="4588647 -4588647"/>
    </vehicle>
    <vehicle id="veh_4513" type="motorcycle" depart="7095">
        <route edges="-917450542 917450542 4588647"/>
    </vehicle>
    <vehicle id="veh_4514" type="motorcycle" depart="7099">
        <route edges="1112806233 4588647"/>
    </vehicle>
    <vehicle id="veh_4515" type="motorcycle" depart="7102">
        <route edges="-917450542 917450542 4588647 -4588647"/>
    </vehicle>
    <vehicle id="veh_4516" type="motorcycle" depart="7104">
        <route edges="4588647 -4588647 -917450542"/>
    </vehicle>
    <vehicle id="veh_4517" type="motorcycle" depart="7105">
        <route edges="4588647 -4588647 -917450542 1174874706"/>
    </vehicle>
    <vehicle id="veh_4518" type="motorcycle" depart="7110">
        <route edges="4588647 -4588647 -917450542"/>
    </vehicle>
    <vehicle id="veh_4519" type="motorcycle" depart="7113">
        <route edges="-4588647 4588647"/>
    </vehicle>
    <vehicle id="veh_4520" type="motorcycle" depart="7117">
        <route edges="-917450542 917450542 4588647 -4588647"/>
    </vehicle>
    <vehicle id="veh_4521" type="motorcycle" depart="7120">
        <route edges="1112806233 4588647 -4588647 -917450542"/>
    </vehicle>
    <vehicle id="veh_4522" type="motorcycle" depart="7131">
        <route edges="4588647 -4588647 -917450542 1174874706"/>
    </vehicle>
    <vehicle id="veh_4523" type="motorcycle" depart="7134">
        <route edges="1112806233 4588647 -4588647 -917450542"/>
    </vehicle>
    <vehicle id="veh_4524" type="motorcycle" depart="7137">
        <route edges="-917450542 917450542 4588647 -4588647"/>
    </vehicle>
    <vehicle id="veh_4525" type="motorcycle" depart="7137">
        <route edges="-4588647 4588647"/>
    </vehicle>
    <vehicle id="veh_4526" type="motorcycle" depart="7142">
        <route edges="-4588647 -917450542 1174874706"/>
    </vehicle>
    <vehicle id="veh_4527" type="motorcycle" depart="7146">
        <route edges="4588647 -4588647 -917450542"/>
    </vehicle>
    <vehicle id="veh_4528" type="motorcycle" depart="7150">
        <route edges="1112806233 4588647 -4588647"/>
    </vehicle>
    <vehicle id="veh_4529" type="motorcycle" depart="7153">
        <route edges="1112806233 4588647"/>
    </vehicle>
    <vehicle id="veh_4530" type="motorcycle" depart="7155">
        <route edges="1112806233 4588647 -4588647 -917450542"/>
    </vehicle>
    <vehicle id="veh_4531" type="motorcycle" depart="7158">
        <route edges="-4588647 4588647"/>
    </vehicle>
    <vehicle id="veh_4532" type="truck" depart="6339">
        <route edges="-4588647 -917450542"/>
    </vehicle>
    <vehicle id="veh_4533" type="truck" depart="6381">
        <route edges="1112806233 4588647 -4588647"/>
    </vehicle>
    <vehicle id="veh_4534" type="truck" depart="6416">
        <route edges="-917450542 917450542 4588647 -4588647"/>
    </vehicle>
    <vehicle id="veh_4535" type="truck" depart="6470">
        <route edges="4588647 -4588647 -917450542"/>
    </vehicle>
    <vehicle id="veh_4536" type="truck" depart="6505">
        <route edges="4588647 -4588647 -917450542 1174874706"/>
    </vehicle>
    <vehicle id="veh_4537" type="truck" depart="6549">
        <route edges="4588647 -4588647 -917450542 1174874706"/>
    </vehicle>
    <vehicle id="veh_4538" type="truck" depart="6592">
        <route edges="4588647 -4588647 -917450542"/>
    </vehicle>
    <vehicle id="veh_4539" type="truck" depart="6648">
        <route edges="-4588647 4588647"/>
    </vehicle>
    <vehicle id="veh_4540" type="truck" depart="6690">
        <route edges="1112806233 4588647 -4588647 -917450542 1174874706"/>
    </vehicle>
    <vehicle id="veh_4541" type="truck" depart="6740">
        <route edges="1112806233 4588647 -4588647 -917450542 1174874706"/>
    </vehicle>
    <vehicle id="veh_4542" type="truck" depart="6777">
        <route edges="-917450542 917450542 4588647"/>
    </vehicle>
    <vehicle id="veh_4543" type="truck" depart="6822">
        <route edges="-917450542 917450542 4588647"/>
    </vehicle>
    <vehicle id="veh_4544" type="truck" depart="6871">
        <route edges="-4588647 -917450542 1174874706"/>
    </vehicle>
    <vehicle id="veh_4545" type="truck" depart="6919">
        <route edges="1112806233 4588647"/>
    </vehicle>
    <vehicle id="veh_4546" type="truck" depart="6977">
        <route edges="-4588647 -917450542 1174874706"/>
    </vehicle>
    <vehicle id="veh_4547" type="truck" depart="7025">
        <route edges="1112806233 4588647"/>
    </vehicle>
    <vehicle id="veh_4548" type="truck" depart="7077">
        <route edges="-917450542 917450542 4588647"/>
    </vehicle>
    <vehicle id="veh_4549" type="truck" depart="7117">
        <route edges="-917450542 917450542 4588647"/>
    </vehicle>
    <vehicle id="veh_4550" type="truck" depart="7157">
        <route edges="4588647 -4588647 -917450542 1174874706"/>
    </vehicle>
    <vehicle id="veh_4551" type="truck" depart="7193">
        <route edges="4588647 -4588647 -917450542 1174874706"/>
    </vehicle>
    <vehicle id="veh_4552" type="bus" depart="6373">
        <route edges="-4588647 -917450542 1174874706"/>
    </vehicle>
    <vehicle id="veh_4553" type="bus" depart="6440">
        <route edges="-917450542 1174874706"/>
    </vehicle>
    <vehicle id="veh_4554" type="bus" depart="6490">
        <route edges="1112806233 4588647 -4588647"/>
    </vehicle>
    <vehicle id="veh_4555" type="bus" depart="6553">
        <route edges="4588647 -4588647 -917450542"/>
    </vehicle>
    <vehicle id="veh_4556" type="bus" depart="6600">
        <route edges="-4588647 -917450542"/>
    </vehicle>
    <vehicle id="veh_4557" type="bus" depart="6656">
        <route edges="1112806233 4588647 -4588647 -917450542"/>
    </vehicle>
    <vehicle id="veh_4558" type="bus" depart="6711">
        <route edges="1112806233 4588647 -4588647"/>
    </vehicle>
    <vehicle id="veh_4559" type="bus" depart="6768">
        <route edges="4588647 -4588647"/>
    </vehicle>
    <vehicle id="veh_4560" type="bus" depart="6828">
        <route edges="1112806233 4588647 -4588647 -917450542"/>
    </vehicle>
    <vehicle id="veh_4561" type="bus" depart="6883">
        <route edges="1112806233 4588647 -4588647"/>
    </vehicle>
    <vehicle id="veh_4562" type="bus" depart="6956">
        <route edges="1112806233 4588647 -4588647 -917450542 1174874706"/>
    </vehicle>
    <vehicle id="veh_4563" type="bus" depart="7019">
        <route edges="-917450542 917450542 4588647"/>
    </vehicle>
    <vehicle id="veh_4564" type="bus" depart="7070">
        <route edges="-917450542 917450542 4588647"/>
    </vehicle>
    <vehicle id="veh_4565" type="bus" depart="7127">
        <route edges="1112806233 4588647 -4588647"/>
    </vehicle>
    <vehicle id="veh_4566" type="bus" depart="7194">
        <route edges="1112806233 4588647 -4588647"/>
    </vehicle>
</routes>
