<?xml version="1.0" ?>
<routes xmlns:xsi="http://www.w3.org/2001/XMLSchema-instance" xsi:noNamespaceSchemaLocation="http://sumo.dlr.de/xsd/routes_file.xsd">
    <vType id="car" length="5.00" minGap="2.50" maxSpeed="33.33" guiShape="passenger" color="red" accel="1.0" decel="4.5" sigma="0.5"/>
    <vehicle id="veh_0" type="car" depart="50">
        <route edges="4588647 -4588647"/>
    </vehicle>
    <vehicle id="veh_1" type="car" depart="96">
        <route edges="-917450542 917450542 4588647 -4588647"/>
    </vehicle>
    <vehicle id="veh_2" type="car" depart="134">
        <route edges="-917450542 917450542 4588647 -4588647"/>
    </vehicle>
    <vehicle id="veh_3" type="car" depart="180">
        <route edges="1112806233 4588647 -4588647 -917450542"/>
    </vehicle>
    <vehicle id="veh_4" type="car" depart="230">
        <route edges="-917450542 917450542 4588647"/>
    </vehicle>
    <vehicle id="veh_5" type="car" depart="275">
        <route edges="1112806233 4588647 -4588647 -917450542"/>
    </vehicle>
    <vehicle id="veh_6" type="car" depart="331">
        <route edges="-917450542 917450542 4588647"/>
    </vehicle>
    <vehicle id="veh_7" type="car" depart="377">
        <route edges="4588647 -4588647 -917450542 1174874706"/>
    </vehicle>
    <vehicle id="veh_8" type="car" depart="423">
        <route edges="4588647 -4588647 -917450542 1174874706"/>
    </vehicle>
    <vehicle id="veh_9" type="car" depart="465">
        <route edges="1112806233 4588647 -4588647"/>
    </vehicle>
    <vehicle id="veh_10" type="car" depart="503">
        <route edges="-4588647 -917450542"/>
    </vehicle>
    <vehicle id="veh_11" type="car" depart="557">
        <route edges="4588647 -4588647 -917450542"/>
    </vehicle>
    <vehicle id="veh_12" type="car" depart="604">
        <route edges="-4588647 4588647"/>
    </vehicle>
    <vehicle id="veh_13" type="car" depart="652">
        <route edges="1112806233 4588647 -4588647 -917450542"/>
    </vehicle>
    <vehicle id="veh_14" type="car" depart="695">
        <route edges="4588647 -4588647"/>
    </vehicle>
    <vehicle id="veh_15" type="car" depart="733">
        <route edges="-4588647 -917450542 1174874706"/>
    </vehicle>
    <vehicle id="veh_16" type="car" depart="773">
        <route edges="-4588647 -917450542"/>
    </vehicle>
    <vehicle id="veh_17" type="car" depart="815">
        <route edges="-917450542 917450542 4588647 -4588647"/>
    </vehicle>
    <vehicle id="veh_18" type="car" depart="854">
        <route edges="1112806233 4588647 -4588647 -917450542"/>
    </vehicle>
    <vehicle id="veh_19" type="car" depart="893">
        <route edges="1112806233 4588647 -4588647"/>
    </vehicle>
    <vehicle id="veh_20" type="car" depart="965">
        <route edges="-917450542 1174874706"/>
    </vehicle>
    <vehicle id="veh_21" type="car" depart="1029">
        <route edges="1112806233 4588647"/>
    </vehicle>
    <vehicle id="veh_22" type="car" depart="1090">
        <route edges="1112806233 4588647"/>
    </vehicle>
    <vehicle id="veh_23" type="car" depart="1162">
        <route edges="-917450542 1174874706"/>
    </vehicle>
    <vehicle id="veh_24" type="car" depart="1215">
        <route edges="1112806233 4588647 -4588647 -917450542"/>
    </vehicle>
    <vehicle id="veh_25" type="car" depart="1269">
        <route edges="-4588647 -917450542"/>
    </vehicle>
    <vehicle id="veh_26" type="car" depart="1321">
        <route edges="1112806233 4588647 -4588647 -917450542 1174874706"/>
    </vehicle>
    <vehicle id="veh_27" type="car" depart="1366">
        <route edges="1112806233 4588647 -4588647 -917450542 1174874706"/>
    </vehicle>
    <vehicle id="veh_28" type="car" depart="1425">
        <route edges="-917450542 1174874706"/>
    </vehicle>
    <vehicle id="veh_29" type="car" depart="1492">
        <route edges="-4588647 4588647"/>
    </vehicle>
    <vehicle id="veh_30" type="car" depart="1565">
        <route edges="1112806233 4588647 -4588647 -917450542"/>
    </vehicle>
    <vehicle id="veh_31" type="car" depart="1631">
        <route edges="1112806233 4588647 -4588647 -917450542 1174874706"/>
    </vehicle>
    <vehicle id="veh_32" type="car" depart="1705">
        <route edges="4588647 -4588647"/>
    </vehicle>
    <vehicle id="veh_33" type="car" depart="1773">
        <route edges="1112806233 4588647 -4588647 -917450542"/>
    </vehicle>
    <vehicle id="veh_34" type="car" depart="1829">
        <route edges="4588647 -4588647 -917450542"/>
    </vehicle>
    <vehicle id="veh_35" type="car" depart="1873">
        <route edges="-917450542 1174874706"/>
    </vehicle>
    <vehicle id="veh_36" type="car" depart="1917">
        <route edges="1112806233 4588647 -4588647 -917450542"/>
    </vehicle>
    <vehicle id="veh_37" type="car" depart="1962">
        <route edges="4588647 -4588647 -917450542"/>
    </vehicle>
    <vehicle id="veh_38" type="car" depart="1999">
        <route edges="4588647 -4588647"/>
    </vehicle>
    <vehicle id="veh_39" type="car" depart="2037">
        <route edges="-4588647 -917450542 1174874706"/>
    </vehicle>
    <vehicle id="veh_40" type="car" depart="2077">
        <route edges="-917450542 917450542 4588647 -4588647"/>
    </vehicle>
    <vehicle id="veh_41" type="car" depart="2116">
        <route edges="4588647 -4588647"/>
    </vehicle>
    <vehicle id="veh_42" type="car" depart="2151">
        <route edges="4588647 -4588647"/>
    </vehicle>
    <vehicle id="veh_43" type="car" depart="2189">
        <route edges="-4588647 4588647"/>
    </vehicle>
    <vehicle id="veh_44" type="car" depart="2223">
        <route edges="-4588647 4588647"/>
    </vehicle>
    <vehicle id="veh_45" type="car" depart="2260">
        <route edges="-917450542 1174874706"/>
    </vehicle>
    <vehicle id="veh_46" type="car" depart="2287">
        <route edges="-4588647 4588647"/>
    </vehicle>
    <vehicle id="veh_47" type="car" depart="2322">
        <route edges="1112806233 4588647 -4588647"/>
    </vehicle>
    <vehicle id="veh_48" type="car" depart="2361">
        <route edges="4588647 -4588647 -917450542 1174874706"/>
    </vehicle>
    <vehicle id="veh_49" type="car" depart="2384">
        <route edges="-917450542 917450542 4588647"/>
    </vehicle>
    <vehicle id="veh_50" type="car" depart="2424">
        <route edges="1112806233 4588647 -4588647"/>
    </vehicle>
    <vehicle id="veh_51" type="car" depart="2458">
        <route edges="4588647 -4588647"/>
    </vehicle>
    <vehicle id="veh_52" type="car" depart="2486">
        <route edges="-4588647 -917450542 1174874706"/>
    </vehicle>
    <vehicle id="veh_53" type="car" depart="2516">
        <route edges="1112806233 4588647 -4588647 -917450542"/>
    </vehicle>
    <vehicle id="veh_54" type="car" depart="2559">
        <route edges="1112806233 4588647"/>
    </vehicle>
    <vehicle id="veh_55" type="car" depart="2601">
        <route edges="4588647 -4588647 -917450542 1174874706"/>
    </vehicle>
    <vehicle id="veh_56" type="car" depart="2635">
        <route edges="-917450542 917450542 4588647"/>
    </vehicle>
    <vehicle id="veh_57" type="car" depart="2659">
        <route edges="1112806233 4588647 -4588647 -917450542"/>
    </vehicle>
    <vehicle id="veh_58" type="car" depart="2696">
        <route edges="-4588647 -917450542 1174874706"/>
    </vehicle>
    <vehicle id="veh_59" type="car" depart="2724">
        <route edges="-917450542 917450542 4588647 -4588647"/>
    </vehicle>
    <vehicle id="veh_60" type="car" depart="2750">
        <route edges="4588647 -4588647"/>
    </vehicle>
    <vehicle id="veh_61" type="car" depart="2770">
        <route edges="4588647 -4588647"/>
    </vehicle>
    <vehicle id="veh_62" type="car" depart="2798">
        <route edges="1112806233 4588647 -4588647"/>
    </vehicle>
    <vehicle id="veh_63" type="car" depart="2819">
        <route edges="-917450542 1174874706"/>
    </vehicle>
    <vehicle id="veh_64" type="car" depart="2851">
        <route edges="-4588647 4588647"/>
    </vehicle>
    <vehicle id="veh_65" type="car" depart="2885">
        <route edges="1112806233 4588647"/>
    </vehicle>
    <vehicle id="veh_66" type="car" depart="2909">
        <route edges="1112806233 4588647 -4588647 -917450542 1174874706"/>
    </vehicle>
    <vehicle id="veh_67" type="car" depart="2932">
        <route edges="1112806233 4588647"/>
    </vehicle>
    <vehicle id="veh_68" type="car" depart="2962">
        <route edges="4588647 -4588647 -917450542 1174874706"/>
    </vehicle>
    <vehicle id="veh_69" type="car" depart="3000">
        <route edges="4588647 -4588647 -917450542"/>
    </vehicle>
    <vehicle id="veh_70" type="car" depart="3027">
        <route edges="-4588647 -917450542 1174874706"/>
    </vehicle>
    <vehicle id="veh_71" type="car" depart="3052">
        <route edges="-4588647 4588647"/>
    </vehicle>
    <vehicle id="veh_72" type="car" depart="3087">
        <route edges="1112806233 4588647 -4588647"/>
    </vehicle>
    <vehicle id="veh_73" type="car" depart="3119">
        <route edges="4588647 -4588647 -917450542 1174874706"/>
    </vehicle>
    <vehicle id="veh_74" type="car" depart="3142">
        <route edges="-4588647 -917450542 1174874706"/>
    </vehicle>
    <vehicle id="veh_75" type="car" depart="3166">
        <route edges="-4588647 4588647"/>
    </vehicle>
    <vehicle id="veh_76" type="car" depart="3197">
        <route edges="-917450542 1174874706"/>
    </vehicle>
    <vehicle id="veh_77" type="car" depart="3221">
        <route edges="1112806233 4588647"/>
    </vehicle>
    <vehicle id="veh_78" type="car" depart="3253">
        <route edges="4588647 -4588647 -917450542 1174874706"/>
    </vehicle>
    <vehicle id="veh_79" type="car" depart="3293">
        <route edges="4588647 -4588647 -917450542"/>
    </vehicle>
    <vehicle id="veh_80" type="car" depart="3331">
        <route edges="-917450542 1174874706"/>
    </vehicle>
    <vehicle id="veh_81" type="car" depart="3362">
        <route edges="-917450542 917450542 4588647"/>
    </vehicle>
    <vehicle id="veh_82" type="car" depart="3402">
        <route edges="4588647 -4588647 -917450542 1174874706"/>
    </vehicle>
    <vehicle id="veh_83" type="car" depart="3428">
        <route edges="1112806233 4588647 -4588647 -917450542 1174874706"/>
    </vehicle>
    <vehicle id="veh_84" type="car" depart="3451">
        <route edges="-4588647 4588647"/>
    </vehicle>
    <vehicle id="veh_85" type="car" depart="3476">
        <route edges="-917450542 1174874706"/>
    </vehicle>
    <vehicle id="veh_86" type="car" depart="3506">
        <route edges="-4588647 -917450542 1174874706"/>
    </vehicle>
    <vehicle id="veh_87" type="car" depart="3536">
        <route edges="1112806233 4588647 -4588647"/>
    </vehicle>
    <vehicle id="veh_88" type="car" depart="3567">
        <route edges="1112806233 4588647 -4588647 -917450542 1174874706"/>
    </vehicle>
    <vehicle id="veh_89" type="car" depart="3649">
        <route edges="-4588647 -917450542"/>
    </vehicle>
    <vehicle id="veh_90" type="car" depart="3688">
        <route edges="-4588647 4588647"/>
    </vehicle>
    <vehicle id="veh_91" type="car" depart="3727">
        <route edges="-917450542 1174874706"/>
    </vehicle>
    <vehicle id="veh_92" type="car" depart="3775">
        <route edges="1112806233 4588647 -4588647"/>
    </vehicle>
    <vehicle id="veh_93" type="car" depart="3834">
        <route edges="-4588647 -917450542 1174874706"/>
    </vehicle>
    <vehicle id="veh_94" type="car" depart="3887">
        <route edges="-4588647 4588647"/>
    </vehicle>
    <vehicle id="veh_95" type="car" depart="3939">
        <route edges="4588647 -4588647"/>
    </vehicle>
    <vehicle id="veh_96" type="car" depart="3986">
        <route edges="-4588647 -917450542"/>
    </vehicle>
    <vehicle id="veh_97" type="car" depart="4032">
        <route edges="4588647 -4588647 -917450542"/>
    </vehicle>
    <vehicle id="veh_98" type="car" depart="4097">
        <route edges="-4588647 -917450542 1174874706"/>
    </vehicle>
    <vehicle id="veh_99" type="car" depart="4143">
        <route edges="-917450542 1174874706"/>
    </vehicle>
    <vehicle id="veh_100" type="car" depart="4189">
        <route edges="4588647 -4588647"/>
    </vehicle>
    <vehicle id="veh_101" type="car" depart="4239">
        <route edges="-917450542 917450542 4588647"/>
    </vehicle>
    <vehicle id="veh_102" type="car" depart="4287">
        <route edges="-917450542 917450542 4588647 -4588647"/>
    </vehicle>
    <vehicle id="veh_103" type="car" depart="4340">
        <route edges="1112806233 4588647 -4588647 -917450542"/>
    </vehicle>
    <vehicle id="veh_104" type="car" depart="4384">
        <route edges="-917450542 1174874706"/>
    </vehicle>
    <vehicle id="veh_105" type="car" depart="4437">
        <route edges="-917450542 917450542 4588647 -4588647"/>
    </vehicle>
    <vehicle id="veh_106" type="car" depart="4488">
        <route edges="4588647 -4588647 -917450542 1174874706"/>
    </vehicle>
</routes>
